* NGSPICE file created from spm.ext - technology: sky130A

* Black-box entry subcircuit for sky130_fd_sc_hd__dfrtp_1 abstract view
.subckt sky130_fd_sc_hd__dfrtp_1 CLK D RESET_B VGND VNB VPB VPWR Q
.ends

* Black-box entry subcircuit for sky130_fd_sc_hd__tapvpwrvgnd_1 abstract view
.subckt sky130_fd_sc_hd__tapvpwrvgnd_1 VGND VPWR
.ends

* Black-box entry subcircuit for sky130_fd_sc_hd__fill_2 abstract view
.subckt sky130_fd_sc_hd__fill_2 VGND VNB VPB VPWR
.ends

* Black-box entry subcircuit for sky130_fd_sc_hd__a21bo_1 abstract view
.subckt sky130_fd_sc_hd__a21bo_1 A1 A2 B1_N VGND VNB VPB VPWR X
.ends

* Black-box entry subcircuit for sky130_fd_sc_hd__xnor2_1 abstract view
.subckt sky130_fd_sc_hd__xnor2_1 A B VGND VNB VPB VPWR Y
.ends

* Black-box entry subcircuit for sky130_fd_sc_hd__decap_4 abstract view
.subckt sky130_fd_sc_hd__decap_4 VGND VNB VPB VPWR
.ends

* Black-box entry subcircuit for sky130_ef_sc_hd__decap_12 abstract view
.subckt sky130_ef_sc_hd__decap_12 VPWR VGND VPB VNB
.ends

* Black-box entry subcircuit for sky130_fd_sc_hd__nand2_1 abstract view
.subckt sky130_fd_sc_hd__nand2_1 A B VGND VNB VPB VPWR Y
.ends

* Black-box entry subcircuit for sky130_fd_sc_hd__fill_1 abstract view
.subckt sky130_fd_sc_hd__fill_1 VGND VNB VPB VPWR
.ends

* Black-box entry subcircuit for sky130_fd_sc_hd__decap_3 abstract view
.subckt sky130_fd_sc_hd__decap_3 VGND VNB VPB VPWR
.ends

* Black-box entry subcircuit for sky130_fd_sc_hd__nand3_1 abstract view
.subckt sky130_fd_sc_hd__nand3_1 A B C VGND VNB VPB VPWR Y
.ends

* Black-box entry subcircuit for sky130_fd_sc_hd__decap_8 abstract view
.subckt sky130_fd_sc_hd__decap_8 VGND VNB VPB VPWR
.ends

* Black-box entry subcircuit for sky130_fd_sc_hd__decap_6 abstract view
.subckt sky130_fd_sc_hd__decap_6 VGND VNB VPB VPWR
.ends

* Black-box entry subcircuit for sky130_fd_sc_hd__nor2_1 abstract view
.subckt sky130_fd_sc_hd__nor2_1 A B VGND VNB VPB VPWR Y
.ends

* Black-box entry subcircuit for sky130_fd_sc_hd__buf_2 abstract view
.subckt sky130_fd_sc_hd__buf_2 A VGND VNB VPB VPWR X
.ends

* Black-box entry subcircuit for sky130_fd_sc_hd__a21oi_1 abstract view
.subckt sky130_fd_sc_hd__a21oi_1 A1 A2 B1 VGND VNB VPB VPWR Y
.ends

* Black-box entry subcircuit for sky130_fd_sc_hd__a21o_1 abstract view
.subckt sky130_fd_sc_hd__a21o_1 A1 A2 B1 VGND VNB VPB VPWR X
.ends

* Black-box entry subcircuit for sky130_fd_sc_hd__clkbuf_1 abstract view
.subckt sky130_fd_sc_hd__clkbuf_1 A VGND VNB VPB VPWR X
.ends

* Black-box entry subcircuit for sky130_fd_sc_hd__and3_1 abstract view
.subckt sky130_fd_sc_hd__and3_1 A B C VGND VNB VPB VPWR X
.ends

* Black-box entry subcircuit for sky130_fd_sc_hd__dlymetal6s2s_1 abstract view
.subckt sky130_fd_sc_hd__dlymetal6s2s_1 A VGND VNB VPB VPWR X
.ends

* Black-box entry subcircuit for sky130_fd_sc_hd__clkbuf_2 abstract view
.subckt sky130_fd_sc_hd__clkbuf_2 A VGND VNB VPB VPWR X
.ends

* Black-box entry subcircuit for sky130_fd_sc_hd__clkbuf_4 abstract view
.subckt sky130_fd_sc_hd__clkbuf_4 A VGND VNB VPB VPWR X
.ends

* Black-box entry subcircuit for sky130_fd_sc_hd__buf_1 abstract view
.subckt sky130_fd_sc_hd__buf_1 A VGND VNB VPB VPWR X
.ends

.subckt spm VGND VPWR a[0] a[10] a[11] a[12] a[13] a[14] a[15] a[16] a[17] a[18] a[19]
+ a[1] a[20] a[21] a[22] a[23] a[24] a[25] a[26] a[27] a[28] a[29] a[2] a[30] a[31]
+ a[3] a[4] a[5] a[6] a[7] a[8] a[9] clk rst x y
X_294_ net47 dsa\[13\].last_carry_next net38 VGND VGND VPWR VPWR dsa\[13\].last_carry
+ sky130_fd_sc_hd__dfrtp_1
XTAP_TAPCELL_ROW_15_106 VGND VPWR sky130_fd_sc_hd__tapvpwrvgnd_1
XFILLER_0_3_39 VGND VGND VPWR VPWR sky130_fd_sc_hd__fill_2
XTAP_TAPCELL_ROW_12_98 VGND VPWR sky130_fd_sc_hd__tapvpwrvgnd_1
X_277_ net50 dsa\[4\].y_out_next net41 VGND VGND VPWR VPWR dsa\[4\].y_out sky130_fd_sc_hd__dfrtp_1
X_200_ dsa\[19\].y_out _008_ _010_ VGND VGND VPWR VPWR dsa\[20\].last_carry_next sky130_fd_sc_hd__a21bo_1
X_131_ dsa\[5\].y_out _052_ VGND VGND VPWR VPWR dsa\[6\].y_out_next sky130_fd_sc_hd__xnor2_1
XFILLER_0_28_169 VGND VGND VPWR VPWR sky130_fd_sc_hd__decap_4
XFILLER_0_28_125 VPWR VGND VPWR VGND sky130_ef_sc_hd__decap_12
X_329_ net52 dsa\[30\].y_out_next net43 VGND VGND VPWR VPWR dsa\[30\].y_out sky130_fd_sc_hd__dfrtp_1
XFILLER_0_0_29 VPWR VGND VPWR VGND sky130_ef_sc_hd__decap_12
XFILLER_0_10_41 VPWR VGND VPWR VGND sky130_ef_sc_hd__decap_12
XFILLER_0_19_169 VGND VGND VPWR VPWR sky130_fd_sc_hd__decap_4
X_114_ _037_ _039_ VGND VGND VPWR VPWR _040_ sky130_fd_sc_hd__nand2_1
XTAP_TAPCELL_ROW_5_78 VGND VPWR sky130_fd_sc_hd__tapvpwrvgnd_1
XFILLER_0_16_139 VGND VGND VPWR VPWR sky130_fd_sc_hd__fill_1
XFILLER_0_26_29 VPWR VGND VPWR VGND sky130_ef_sc_hd__decap_12
XFILLER_0_22_109 VGND VGND VPWR VPWR sky130_fd_sc_hd__fill_1
XTAP_TAPCELL_ROW_18_115 VGND VPWR sky130_fd_sc_hd__tapvpwrvgnd_1
XTAP_TAPCELL_ROW_2_68 VGND VPWR sky130_fd_sc_hd__tapvpwrvgnd_1
XTAP_TAPCELL_ROW_15_107 VGND VPWR sky130_fd_sc_hd__tapvpwrvgnd_1
X_293_ net47 dsa\[12\].y_out_next net38 VGND VGND VPWR VPWR dsa\[12\].y_out sky130_fd_sc_hd__dfrtp_1
XTAP_TAPCELL_ROW_12_99 VGND VPWR sky130_fd_sc_hd__tapvpwrvgnd_1
XTAP_TAPCELL_ROW_20_121 VGND VPWR sky130_fd_sc_hd__tapvpwrvgnd_1
X_276_ net49 dsa\[4\].last_carry_next net40 VGND VGND VPWR VPWR dsa\[4\].last_carry
+ sky130_fd_sc_hd__dfrtp_1
XPHY_EDGE_ROW_21_Right_21 VGND VGND VPWR VPWR sky130_fd_sc_hd__decap_3
X_130_ _050_ _051_ VGND VGND VPWR VPWR _052_ sky130_fd_sc_hd__nand2_1
XFILLER_0_4_72 VPWR VGND VPWR VGND sky130_ef_sc_hd__decap_12
XPHY_EDGE_ROW_12_Right_12 VGND VGND VPWR VPWR sky130_fd_sc_hd__decap_3
XFILLER_0_28_137 VGND VGND VPWR VPWR sky130_fd_sc_hd__decap_3
X_259_ dsa\[15\].y_out _023_ VGND VGND VPWR VPWR dsa\[16\].y_out_next sky130_fd_sc_hd__xnor2_1
X_328_ net52 dsa\[30\].last_carry_next net43 VGND VGND VPWR VPWR dsa\[30\].last_carry
+ sky130_fd_sc_hd__dfrtp_1
XFILLER_0_10_53 VPWR VGND VPWR VGND sky130_ef_sc_hd__decap_12
X_113_ _038_ net16 dsa\[8\].last_carry VGND VGND VPWR VPWR _039_ sky130_fd_sc_hd__nand3_1
XPHY_EDGE_ROW_8_Left_37 VGND VGND VPWR VPWR sky130_fd_sc_hd__decap_3
XFILLER_0_24_151 VPWR VGND VPWR VGND sky130_ef_sc_hd__decap_12
XFILLER_0_21_52 VGND VGND VPWR VPWR sky130_fd_sc_hd__decap_4
XFILLER_0_21_30 VPWR VGND VPWR VGND sky130_ef_sc_hd__decap_12
XFILLER_0_1_84 VGND VGND VPWR VPWR sky130_fd_sc_hd__fill_2
XFILLER_0_21_110 VGND VGND VPWR VPWR sky130_fd_sc_hd__fill_2
XPHY_EDGE_ROW_6_Right_6 VGND VGND VPWR VPWR sky130_fd_sc_hd__decap_3
XFILLER_0_12_121 VGND VGND VPWR VPWR sky130_fd_sc_hd__decap_8
XTAP_TAPCELL_ROW_18_116 VGND VPWR sky130_fd_sc_hd__tapvpwrvgnd_1
XTAP_TAPCELL_ROW_2_69 VGND VPWR sky130_fd_sc_hd__tapvpwrvgnd_1
XFILLER_0_5_107 VGND VGND VPWR VPWR sky130_fd_sc_hd__decap_4
XTAP_TAPCELL_ROW_23_130 VGND VPWR sky130_fd_sc_hd__tapvpwrvgnd_1
XTAP_TAPCELL_ROW_15_108 VGND VPWR sky130_fd_sc_hd__tapvpwrvgnd_1
X_292_ net45 dsa\[12\].last_carry_next net36 VGND VGND VPWR VPWR dsa\[12\].last_carry
+ sky130_fd_sc_hd__dfrtp_1
XFILLER_0_13_86 VGND VGND VPWR VPWR sky130_fd_sc_hd__fill_1
XTAP_TAPCELL_ROW_20_122 VGND VPWR sky130_fd_sc_hd__tapvpwrvgnd_1
X_275_ net49 dsa\[3\].y_out_next net40 VGND VGND VPWR VPWR dsa\[3\].y_out sky130_fd_sc_hd__dfrtp_1
XFILLER_0_24_85 VGND VGND VPWR VPWR sky130_fd_sc_hd__decap_4
XPHY_EDGE_ROW_24_Left_53 VGND VGND VPWR VPWR sky130_fd_sc_hd__decap_3
X_258_ _021_ _022_ VGND VGND VPWR VPWR _023_ sky130_fd_sc_hd__nand2_1
X_327_ net52 dsa\[29\].y_out_next net43 VGND VGND VPWR VPWR dsa\[29\].y_out sky130_fd_sc_hd__dfrtp_1
XFILLER_0_19_30 VGND VGND VPWR VPWR sky130_fd_sc_hd__decap_6
X_189_ dsa\[0\].last_carry_next _095_ VGND VGND VPWR VPWR dsa\[0\].y_out_next sky130_fd_sc_hd__nor2_1
XFILLER_0_10_65 VGND VGND VPWR VPWR sky130_fd_sc_hd__decap_6
X_112_ _000_ VGND VGND VPWR VPWR _038_ sky130_fd_sc_hd__buf_2
XFILLER_0_24_163 VGND VGND VPWR VPWR sky130_fd_sc_hd__decap_6
XFILLER_0_21_42 VGND VGND VPWR VPWR sky130_fd_sc_hd__decap_3
XPHY_EDGE_ROW_11_Left_40 VGND VGND VPWR VPWR sky130_fd_sc_hd__decap_3
XFILLER_0_12_100 VGND VGND VPWR VPWR sky130_fd_sc_hd__fill_2
XTAP_TAPCELL_ROW_18_117 VGND VPWR sky130_fd_sc_hd__tapvpwrvgnd_1
XFILLER_0_9_3 VGND VGND VPWR VPWR sky130_fd_sc_hd__decap_8
XTAP_TAPCELL_ROW_23_131 VGND VPWR sky130_fd_sc_hd__tapvpwrvgnd_1
XFILLER_0_7_51 VGND VGND VPWR VPWR sky130_fd_sc_hd__decap_4
X_291_ net45 dsa\[11\].y_out_next net36 VGND VGND VPWR VPWR dsa\[11\].y_out sky130_fd_sc_hd__dfrtp_1
XTAP_TAPCELL_ROW_20_123 VGND VPWR sky130_fd_sc_hd__tapvpwrvgnd_1
X_274_ net49 dsa\[3\].last_carry_next net40 VGND VGND VPWR VPWR dsa\[3\].last_carry
+ sky130_fd_sc_hd__dfrtp_1
XFILLER_0_4_41 VGND VGND VPWR VPWR sky130_fd_sc_hd__fill_2
XFILLER_0_4_85 VPWR VGND VPWR VGND sky130_ef_sc_hd__decap_12
X_257_ _009_ net7 dsa\[16\].last_carry VGND VGND VPWR VPWR _022_ sky130_fd_sc_hd__nand3_1
X_326_ net51 dsa\[29\].last_carry_next net42 VGND VGND VPWR VPWR dsa\[29\].last_carry
+ sky130_fd_sc_hd__dfrtp_1
XFILLER_0_19_86 VGND VGND VPWR VPWR sky130_fd_sc_hd__decap_3
X_188_ _009_ net25 dsa\[0\].last_carry VGND VGND VPWR VPWR _095_ sky130_fd_sc_hd__a21oi_1
XTAP_TAPCELL_ROW_9_90 VGND VPWR sky130_fd_sc_hd__tapvpwrvgnd_1
X_309_ net47 dsa\[20\].y_out_next net38 VGND VGND VPWR VPWR dsa\[20\].y_out sky130_fd_sc_hd__dfrtp_1
X_111_ _030_ net16 dsa\[8\].last_carry VGND VGND VPWR VPWR _037_ sky130_fd_sc_hd__a21o_1
XFILLER_0_15_131 VGND VGND VPWR VPWR sky130_fd_sc_hd__decap_6
XFILLER_0_21_145 VGND VGND VPWR VPWR sky130_fd_sc_hd__decap_3
XTAP_TAPCELL_ROW_6_80 VGND VPWR sky130_fd_sc_hd__tapvpwrvgnd_1
XFILLER_0_8_139 VGND VGND VPWR VPWR sky130_fd_sc_hd__fill_1
XTAP_TAPCELL_ROW_26_140 VGND VPWR sky130_fd_sc_hd__tapvpwrvgnd_1
XTAP_TAPCELL_ROW_23_132 VGND VPWR sky130_fd_sc_hd__tapvpwrvgnd_1
X_290_ net45 dsa\[11\].last_carry_next net36 VGND VGND VPWR VPWR dsa\[11\].last_carry
+ sky130_fd_sc_hd__dfrtp_1
XFILLER_0_1_167 VGND VGND VPWR VPWR sky130_fd_sc_hd__fill_1
XFILLER_0_1_145 VGND VGND VPWR VPWR sky130_fd_sc_hd__fill_2
XTAP_TAPCELL_ROW_3_70 VGND VPWR sky130_fd_sc_hd__tapvpwrvgnd_1
X_273_ net46 dsa\[2\].y_out_next net37 VGND VGND VPWR VPWR dsa\[2\].y_out sky130_fd_sc_hd__dfrtp_1
XFILLER_0_4_97 VPWR VGND VPWR VGND sky130_ef_sc_hd__decap_12
X_256_ _001_ net7 dsa\[16\].last_carry VGND VGND VPWR VPWR _021_ sky130_fd_sc_hd__a21o_1
XFILLER_0_19_65 VGND VGND VPWR VPWR sky130_fd_sc_hd__fill_1
X_325_ net51 dsa\[28\].y_out_next net42 VGND VGND VPWR VPWR dsa\[28\].y_out sky130_fd_sc_hd__dfrtp_1
XTAP_TAPCELL_ROW_0_60 VGND VPWR sky130_fd_sc_hd__tapvpwrvgnd_1
X_187_ _094_ VGND VGND VPWR VPWR dsa\[0\].last_carry_next sky130_fd_sc_hd__clkbuf_1
XFILLER_0_10_78 VGND VGND VPWR VPWR sky130_fd_sc_hd__decap_6
XFILLER_0_27_173 VGND VGND VPWR VPWR sky130_fd_sc_hd__fill_1
XFILLER_0_18_173 VGND VGND VPWR VPWR sky130_fd_sc_hd__fill_1
X_110_ dsa\[23\].y_out _036_ VGND VGND VPWR VPWR dsa\[24\].y_out_next sky130_fd_sc_hd__xnor2_1
XFILLER_0_27_6 VPWR VGND VPWR VGND sky130_ef_sc_hd__decap_12
X_308_ net47 dsa\[20\].last_carry_next net38 VGND VGND VPWR VPWR dsa\[20\].last_carry
+ sky130_fd_sc_hd__dfrtp_1
X_239_ _001_ net3 dsa\[20\].last_carry VGND VGND VPWR VPWR _008_ sky130_fd_sc_hd__a21o_1
XTAP_TAPCELL_ROW_10_91 VGND VPWR sky130_fd_sc_hd__tapvpwrvgnd_1
XFILLER_0_21_113 VPWR VGND VPWR VGND sky130_ef_sc_hd__decap_12
XFILLER_0_21_102 VGND VGND VPWR VPWR sky130_fd_sc_hd__decap_8
XTAP_TAPCELL_ROW_6_81 VGND VPWR sky130_fd_sc_hd__tapvpwrvgnd_1
Xoutput35 net35 VGND VGND VPWR VPWR y sky130_fd_sc_hd__buf_2
XFILLER_0_7_162 VGND VGND VPWR VPWR sky130_fd_sc_hd__decap_6
XFILLER_0_7_173 VGND VGND VPWR VPWR sky130_fd_sc_hd__fill_1
XPHY_EDGE_ROW_28_Right_28 VGND VGND VPWR VPWR sky130_fd_sc_hd__decap_3
XTAP_TAPCELL_ROW_26_141 VGND VPWR sky130_fd_sc_hd__tapvpwrvgnd_1
XPHY_EDGE_ROW_19_Right_19 VGND VGND VPWR VPWR sky130_fd_sc_hd__decap_3
XFILLER_0_4_121 VPWR VGND VPWR VGND sky130_ef_sc_hd__decap_12
XFILLER_0_11_9 VGND VGND VPWR VPWR sky130_fd_sc_hd__decap_8
XFILLER_0_1_124 VGND VGND VPWR VPWR sky130_fd_sc_hd__fill_1
XTAP_TAPCELL_ROW_3_71 VGND VPWR sky130_fd_sc_hd__tapvpwrvgnd_1
X_272_ net45 dsa\[2\].last_carry_next net36 VGND VGND VPWR VPWR dsa\[2\].last_carry
+ sky130_fd_sc_hd__dfrtp_1
XFILLER_0_24_11 VGND VGND VPWR VPWR sky130_fd_sc_hd__decap_3
X_255_ dsa\[17\].y_out _020_ VGND VGND VPWR VPWR dsa\[18\].y_out_next sky130_fd_sc_hd__xnor2_1
X_324_ net49 dsa\[28\].last_carry_next net40 VGND VGND VPWR VPWR dsa\[28\].last_carry
+ sky130_fd_sc_hd__dfrtp_1
X_186_ _000_ net25 dsa\[0\].last_carry VGND VGND VPWR VPWR _094_ sky130_fd_sc_hd__and3_1
XTAP_TAPCELL_ROW_0_61 VGND VPWR sky130_fd_sc_hd__tapvpwrvgnd_1
XPHY_EDGE_ROW_28_Left_57 VGND VGND VPWR VPWR sky130_fd_sc_hd__decap_3
XFILLER_0_24_133 VGND VGND VPWR VPWR sky130_fd_sc_hd__decap_6
XFILLER_0_24_122 VGND VGND VPWR VPWR sky130_fd_sc_hd__decap_8
X_307_ net47 dsa\[19\].y_out_next net38 VGND VGND VPWR VPWR dsa\[19\].y_out sky130_fd_sc_hd__dfrtp_1
XFILLER_0_1_55 VGND VGND VPWR VPWR sky130_fd_sc_hd__fill_1
X_238_ dsa\[1\].y_out _007_ VGND VGND VPWR VPWR dsa\[2\].y_out_next sky130_fd_sc_hd__xnor2_1
X_169_ dsa\[10\].y_out _081_ VGND VGND VPWR VPWR dsa\[11\].y_out_next sky130_fd_sc_hd__xnor2_1
XTAP_TAPCELL_ROW_10_92 VGND VPWR sky130_fd_sc_hd__tapvpwrvgnd_1
XFILLER_0_21_169 VGND VGND VPWR VPWR sky130_fd_sc_hd__fill_2
XFILLER_0_21_125 VPWR VGND VPWR VGND sky130_ef_sc_hd__decap_12
XFILLER_0_16_23 VGND VGND VPWR VPWR sky130_fd_sc_hd__decap_4
XFILLER_0_18_3 VGND VGND VPWR VPWR sky130_fd_sc_hd__decap_6
XFILLER_0_7_141 VPWR VGND VPWR VGND sky130_ef_sc_hd__decap_12
XPHY_EDGE_ROW_15_Left_44 VGND VGND VPWR VPWR sky130_fd_sc_hd__decap_3
XFILLER_0_4_133 VGND VGND VPWR VPWR sky130_fd_sc_hd__fill_2
XFILLER_0_7_87 VGND VGND VPWR VPWR sky130_fd_sc_hd__fill_1
XFILLER_0_7_3 VPWR VGND VPWR VGND sky130_ef_sc_hd__decap_12
XFILLER_0_13_57 VGND VGND VPWR VPWR sky130_fd_sc_hd__decap_4
XFILLER_0_1_169 VGND VGND VPWR VPWR sky130_fd_sc_hd__fill_2
XTAP_TAPCELL_ROW_3_72 VGND VPWR sky130_fd_sc_hd__tapvpwrvgnd_1
XFILLER_0_13_24 VPWR VGND VPWR VGND sky130_ef_sc_hd__decap_12
XPHY_EDGE_ROW_0_Left_29 VGND VGND VPWR VPWR sky130_fd_sc_hd__decap_3
XFILLER_0_24_56 VPWR VGND VPWR VGND sky130_ef_sc_hd__decap_12
X_271_ net45 dsa\[1\].y_out_next net36 VGND VGND VPWR VPWR dsa\[1\].y_out sky130_fd_sc_hd__dfrtp_1
X_254_ _018_ _019_ VGND VGND VPWR VPWR _020_ sky130_fd_sc_hd__nand2_1
X_185_ dsa\[16\].y_out _093_ VGND VGND VPWR VPWR dsa\[17\].y_out_next sky130_fd_sc_hd__xnor2_1
X_323_ net51 dsa\[27\].y_out_next net42 VGND VGND VPWR VPWR dsa\[27\].y_out sky130_fd_sc_hd__dfrtp_1
XFILLER_0_19_109 VGND VGND VPWR VPWR sky130_fd_sc_hd__decap_3
XTAP_TAPCELL_ROW_0_62 VGND VPWR sky130_fd_sc_hd__tapvpwrvgnd_1
XFILLER_0_21_57 VPWR VGND VPWR VGND sky130_ef_sc_hd__decap_12
X_306_ net51 dsa\[19\].last_carry_next net42 VGND VGND VPWR VPWR dsa\[19\].last_carry
+ sky130_fd_sc_hd__dfrtp_1
XPHY_EDGE_ROW_3_Left_32 VGND VGND VPWR VPWR sky130_fd_sc_hd__decap_3
X_237_ _005_ _006_ VGND VGND VPWR VPWR _007_ sky130_fd_sc_hd__nand2_1
X_168_ _079_ _080_ VGND VGND VPWR VPWR _081_ sky130_fd_sc_hd__nand2_1
XFILLER_0_21_137 VGND VGND VPWR VPWR sky130_fd_sc_hd__decap_8
XTAP_TAPCELL_ROW_10_93 VGND VPWR sky130_fd_sc_hd__tapvpwrvgnd_1
XFILLER_0_8_109 VPWR VGND VPWR VGND sky130_ef_sc_hd__decap_12
XPHY_EDGE_ROW_1_Right_1 VGND VGND VPWR VPWR sky130_fd_sc_hd__decap_3
XFILLER_0_7_131 VGND VGND VPWR VPWR sky130_fd_sc_hd__decap_6
XFILLER_0_7_153 VGND VGND VPWR VPWR sky130_fd_sc_hd__decap_6
XFILLER_0_7_55 VGND VGND VPWR VPWR sky130_fd_sc_hd__fill_1
XFILLER_0_1_159 VGND VGND VPWR VPWR sky130_fd_sc_hd__decap_8
XFILLER_0_13_36 VPWR VGND VPWR VGND sky130_ef_sc_hd__decap_12
X_270_ net45 dsa\[1\].last_carry_next net36 VGND VGND VPWR VPWR dsa\[1\].last_carry
+ sky130_fd_sc_hd__dfrtp_1
XFILLER_0_24_68 VGND VGND VPWR VPWR sky130_fd_sc_hd__fill_2
X_322_ net51 dsa\[27\].last_carry_next net42 VGND VGND VPWR VPWR dsa\[27\].last_carry
+ sky130_fd_sc_hd__dfrtp_1
XFILLER_0_27_165 VGND VGND VPWR VPWR sky130_fd_sc_hd__decap_3
X_253_ _009_ net5 dsa\[18\].last_carry VGND VGND VPWR VPWR _019_ sky130_fd_sc_hd__nand3_1
X_184_ _091_ _092_ VGND VGND VPWR VPWR _093_ sky130_fd_sc_hd__nand2_1
XFILLER_0_19_57 VGND VGND VPWR VPWR sky130_fd_sc_hd__decap_8
XTAP_TAPCELL_ROW_0_63 VGND VPWR sky130_fd_sc_hd__tapvpwrvgnd_1
Xfanout50 net53 VGND VGND VPWR VPWR net50 sky130_fd_sc_hd__dlymetal6s2s_1
XFILLER_0_18_121 VGND VGND VPWR VPWR sky130_fd_sc_hd__decap_8
X_305_ net51 dsa\[18\].y_out_next net42 VGND VGND VPWR VPWR dsa\[18\].y_out sky130_fd_sc_hd__dfrtp_1
XFILLER_0_24_113 VGND VGND VPWR VPWR sky130_fd_sc_hd__fill_1
XFILLER_0_21_69 VPWR VGND VPWR VGND sky130_ef_sc_hd__decap_12
X_236_ net22 _001_ dsa\[2\].last_carry VGND VGND VPWR VPWR _006_ sky130_fd_sc_hd__nand3_1
X_167_ _070_ net13 dsa\[11\].last_carry VGND VGND VPWR VPWR _080_ sky130_fd_sc_hd__nand3_1
XFILLER_0_15_113 VGND VGND VPWR VPWR sky130_fd_sc_hd__decap_6
XFILLER_0_1_35 VGND VGND VPWR VPWR sky130_fd_sc_hd__fill_2
XFILLER_0_11_91 VGND VGND VPWR VPWR sky130_fd_sc_hd__decap_3
XFILLER_0_16_36 VGND VGND VPWR VPWR sky130_fd_sc_hd__fill_1
X_219_ dsa\[26\].y_out _069_ _071_ VGND VGND VPWR VPWR dsa\[27\].last_carry_next sky130_fd_sc_hd__a21bo_1
XFILLER_0_27_24 VGND VGND VPWR VPWR sky130_fd_sc_hd__fill_1
XPHY_EDGE_ROW_24_Right_24 VGND VGND VPWR VPWR sky130_fd_sc_hd__decap_3
XFILLER_0_23_3 VPWR VGND VPWR VGND sky130_ef_sc_hd__decap_12
XPHY_EDGE_ROW_15_Right_15 VGND VGND VPWR VPWR sky130_fd_sc_hd__decap_3
XFILLER_0_13_48 VGND VGND VPWR VPWR sky130_fd_sc_hd__fill_2
XTAP_TAPCELL_ROW_14_103 VGND VPWR sky130_fd_sc_hd__tapvpwrvgnd_1
Xfanout51 net53 VGND VGND VPWR VPWR net51 sky130_fd_sc_hd__clkbuf_2
X_252_ _001_ net5 dsa\[18\].last_carry VGND VGND VPWR VPWR _018_ sky130_fd_sc_hd__a21o_1
X_183_ _070_ net6 dsa\[17\].last_carry VGND VGND VPWR VPWR _092_ sky130_fd_sc_hd__nand3_1
X_321_ net51 dsa\[26\].y_out_next net42 VGND VGND VPWR VPWR dsa\[26\].y_out sky130_fd_sc_hd__dfrtp_1
Xfanout40 net44 VGND VGND VPWR VPWR net40 sky130_fd_sc_hd__clkbuf_4
XFILLER_0_10_27 VGND VGND VPWR VPWR sky130_fd_sc_hd__fill_1
XFILLER_0_27_133 VPWR VGND VPWR VGND sky130_ef_sc_hd__decap_12
X_304_ net48 dsa\[18\].last_carry_next net39 VGND VGND VPWR VPWR dsa\[18\].last_carry
+ sky130_fd_sc_hd__dfrtp_1
X_235_ net22 _000_ dsa\[2\].last_carry VGND VGND VPWR VPWR _005_ sky130_fd_sc_hd__a21o_1
XFILLER_0_24_169 VGND VGND VPWR VPWR sky130_fd_sc_hd__fill_1
XFILLER_0_15_169 VGND VGND VPWR VPWR sky130_fd_sc_hd__fill_2
X_166_ _062_ net13 dsa\[11\].last_carry VGND VGND VPWR VPWR _079_ sky130_fd_sc_hd__a21o_1
X_218_ dsa\[2\].y_out _066_ _067_ VGND VGND VPWR VPWR dsa\[3\].last_carry_next sky130_fd_sc_hd__a21bo_1
X_149_ _062_ net21 dsa\[3\].last_carry VGND VGND VPWR VPWR _066_ sky130_fd_sc_hd__a21o_1
XTAP_TAPCELL_ROW_17_112 VGND VPWR sky130_fd_sc_hd__tapvpwrvgnd_1
XFILLER_0_7_57 VPWR VGND VPWR VGND sky130_ef_sc_hd__decap_12
XTAP_TAPCELL_ROW_14_104 VGND VPWR sky130_fd_sc_hd__tapvpwrvgnd_1
XPHY_EDGE_ROW_19_Left_48 VGND VGND VPWR VPWR sky130_fd_sc_hd__decap_3
XFILLER_0_1_106 VGND VGND VPWR VPWR sky130_fd_sc_hd__decap_6
XFILLER_0_24_26 VGND VGND VPWR VPWR sky130_fd_sc_hd__fill_2
XFILLER_0_5_3 VGND VGND VPWR VPWR sky130_fd_sc_hd__fill_2
Xfanout52 net53 VGND VGND VPWR VPWR net52 sky130_fd_sc_hd__buf_1
X_182_ _062_ net6 dsa\[17\].last_carry VGND VGND VPWR VPWR _091_ sky130_fd_sc_hd__a21o_1
Xfanout41 net44 VGND VGND VPWR VPWR net41 sky130_fd_sc_hd__buf_2
X_251_ dsa\[0\].y_out _017_ VGND VGND VPWR VPWR dsa\[1\].y_out_next sky130_fd_sc_hd__xnor2_1
X_320_ net50 dsa\[26\].last_carry_next net41 VGND VGND VPWR VPWR dsa\[26\].last_carry
+ sky130_fd_sc_hd__dfrtp_1
XFILLER_0_27_145 VPWR VGND VPWR VGND sky130_ef_sc_hd__decap_12
XFILLER_0_18_156 VGND VGND VPWR VPWR sky130_fd_sc_hd__decap_3
X_303_ net51 dsa\[17\].y_out_next net42 VGND VGND VPWR VPWR dsa\[17\].y_out sky130_fd_sc_hd__dfrtp_1
X_165_ dsa\[28\].y_out _078_ VGND VGND VPWR VPWR dsa\[29\].y_out_next sky130_fd_sc_hd__xnor2_1
X_234_ dsa\[8\].y_out _004_ VGND VGND VPWR VPWR dsa\[9\].y_out_next sky130_fd_sc_hd__xnor2_1
XFILLER_0_1_15 VPWR VGND VPWR VGND sky130_ef_sc_hd__decap_12
XFILLER_0_15_137 VGND VGND VPWR VPWR sky130_fd_sc_hd__fill_1
XFILLER_0_15_104 VGND VGND VPWR VPWR sky130_fd_sc_hd__decap_8
XPHY_EDGE_ROW_7_Left_36 VGND VGND VPWR VPWR sky130_fd_sc_hd__decap_3
XFILLER_0_16_27 VGND VGND VPWR VPWR sky130_fd_sc_hd__fill_1
X_148_ dsa\[3\].y_out _065_ VGND VGND VPWR VPWR dsa\[4\].y_out_next sky130_fd_sc_hd__xnor2_1
X_217_ dsa\[3\].y_out _063_ _064_ VGND VGND VPWR VPWR dsa\[4\].last_carry_next sky130_fd_sc_hd__a21bo_1
XFILLER_0_12_129 VGND VGND VPWR VPWR sky130_fd_sc_hd__fill_1
XFILLER_0_11_140 VGND VGND VPWR VPWR sky130_fd_sc_hd__decap_8
XTAP_TAPCELL_ROW_17_113 VGND VPWR sky130_fd_sc_hd__tapvpwrvgnd_1
XFILLER_0_4_148 VGND VGND VPWR VPWR sky130_fd_sc_hd__decap_6
XFILLER_0_7_69 VPWR VGND VPWR VGND sky130_ef_sc_hd__decap_12
XFILLER_0_17_92 VGND VGND VPWR VPWR sky130_fd_sc_hd__decap_3
XPHY_EDGE_ROW_5_Right_5 VGND VGND VPWR VPWR sky130_fd_sc_hd__decap_3
XTAP_TAPCELL_ROW_14_105 VGND VPWR sky130_fd_sc_hd__tapvpwrvgnd_1
XFILLER_0_0_173 VGND VGND VPWR VPWR sky130_fd_sc_hd__fill_1
XPHY_EDGE_ROW_20_Left_49 VGND VGND VPWR VPWR sky130_fd_sc_hd__decap_3
XFILLER_0_4_15 VPWR VGND VPWR VGND sky130_ef_sc_hd__decap_12
Xfanout53 net33 VGND VGND VPWR VPWR net53 sky130_fd_sc_hd__buf_2
X_181_ dsa\[21\].y_out _090_ VGND VGND VPWR VPWR dsa\[22\].y_out_next sky130_fd_sc_hd__xnor2_1
Xfanout42 net44 VGND VGND VPWR VPWR net42 sky130_fd_sc_hd__clkbuf_4
X_250_ _015_ _016_ VGND VGND VPWR VPWR _017_ sky130_fd_sc_hd__nand2_1
XFILLER_0_10_18 VGND VGND VPWR VPWR sky130_fd_sc_hd__decap_4
XFILLER_0_10_29 VPWR VGND VPWR VGND sky130_ef_sc_hd__decap_12
XFILLER_0_27_157 VGND VGND VPWR VPWR sky130_fd_sc_hd__decap_8
XFILLER_0_25_81 VPWR VGND VPWR VGND sky130_ef_sc_hd__decap_12
XFILLER_0_18_135 VGND VGND VPWR VPWR sky130_fd_sc_hd__decap_4
X_302_ net51 dsa\[17\].last_carry_next net42 VGND VGND VPWR VPWR dsa\[17\].last_carry
+ sky130_fd_sc_hd__dfrtp_1
X_164_ _076_ _077_ VGND VGND VPWR VPWR _078_ sky130_fd_sc_hd__nand2_1
X_233_ _002_ _003_ VGND VGND VPWR VPWR _004_ sky130_fd_sc_hd__nand2_1
XFILLER_0_1_27 VGND VGND VPWR VPWR sky130_fd_sc_hd__decap_8
XFILLER_0_23_160 VGND VGND VPWR VPWR sky130_fd_sc_hd__decap_8
XPHY_EDGE_ROW_23_Left_52 VGND VGND VPWR VPWR sky130_fd_sc_hd__decap_3
XFILLER_0_11_61 VPWR VGND VPWR VGND sky130_ef_sc_hd__decap_12
XFILLER_0_22_93 VGND VGND VPWR VPWR sky130_fd_sc_hd__fill_1
XFILLER_0_22_71 VGND VGND VPWR VPWR sky130_fd_sc_hd__decap_6
XFILLER_0_20_141 VPWR VGND VPWR VGND sky130_ef_sc_hd__decap_12
X_147_ _063_ _064_ VGND VGND VPWR VPWR _065_ sky130_fd_sc_hd__nand2_1
X_216_ dsa\[25\].y_out _059_ _060_ VGND VGND VPWR VPWR dsa\[26\].last_carry_next sky130_fd_sc_hd__a21bo_1
XTAP_TAPCELL_ROW_17_114 VGND VPWR sky130_fd_sc_hd__tapvpwrvgnd_1
XFILLER_0_4_138 VGND VGND VPWR VPWR sky130_fd_sc_hd__fill_2
XFILLER_0_7_15 VGND VGND VPWR VPWR sky130_fd_sc_hd__decap_6
XFILLER_0_3_160 VGND VGND VPWR VPWR sky130_fd_sc_hd__decap_8
XPHY_EDGE_ROW_20_Right_20 VGND VGND VPWR VPWR sky130_fd_sc_hd__decap_3
XPHY_EDGE_ROW_11_Right_11 VGND VGND VPWR VPWR sky130_fd_sc_hd__decap_3
XFILLER_0_0_141 VPWR VGND VPWR VGND sky130_ef_sc_hd__decap_12
XFILLER_0_4_27 VGND VGND VPWR VPWR sky130_fd_sc_hd__fill_1
X_180_ _088_ _089_ VGND VGND VPWR VPWR _090_ sky130_fd_sc_hd__nand2_1
Xfanout43 net44 VGND VGND VPWR VPWR net43 sky130_fd_sc_hd__clkbuf_2
XFILLER_0_27_169 VGND VGND VPWR VPWR sky130_fd_sc_hd__decap_4
XFILLER_0_25_93 VPWR VGND VPWR VGND sky130_ef_sc_hd__decap_12
XFILLER_0_18_169 VGND VGND VPWR VPWR sky130_fd_sc_hd__decap_4
XFILLER_0_24_139 VGND VGND VPWR VPWR sky130_fd_sc_hd__fill_1
XFILLER_0_24_117 VGND VGND VPWR VPWR sky130_fd_sc_hd__fill_1
X_301_ net51 dsa\[16\].y_out_next net42 VGND VGND VPWR VPWR dsa\[16\].y_out sky130_fd_sc_hd__dfrtp_1
XFILLER_0_21_18 VPWR VGND VPWR VGND sky130_ef_sc_hd__decap_12
X_163_ _070_ net23 dsa\[29\].last_carry VGND VGND VPWR VPWR _077_ sky130_fd_sc_hd__nand3_1
X_232_ dsa\[9\].last_carry _001_ net15 VGND VGND VPWR VPWR _003_ sky130_fd_sc_hd__nand3_1
XFILLER_0_11_40 VGND VGND VPWR VPWR sky130_fd_sc_hd__decap_6
XFILLER_0_20_153 VPWR VGND VPWR VGND sky130_ef_sc_hd__decap_12
XFILLER_0_18_9 VGND VGND VPWR VPWR sky130_fd_sc_hd__fill_1
X_146_ _038_ net20 dsa\[4\].last_carry VGND VGND VPWR VPWR _064_ sky130_fd_sc_hd__nand3_1
X_215_ dsa\[4\].y_out _056_ _057_ VGND VGND VPWR VPWR dsa\[5\].last_carry_next sky130_fd_sc_hd__a21bo_1
XFILLER_0_12_109 VPWR VGND VPWR VGND sky130_ef_sc_hd__decap_12
XFILLER_0_22_83 VGND VGND VPWR VPWR sky130_fd_sc_hd__fill_1
XFILLER_0_7_169 VGND VGND VPWR VPWR sky130_fd_sc_hd__decap_4
XFILLER_0_7_27 VPWR VGND VPWR VGND sky130_ef_sc_hd__decap_12
XFILLER_0_17_72 VPWR VGND VPWR VGND sky130_ef_sc_hd__decap_12
X_129_ _038_ net18 dsa\[6\].last_carry VGND VGND VPWR VPWR _051_ sky130_fd_sc_hd__nand3_1
XFILLER_0_0_153 VPWR VGND VPWR VGND sky130_ef_sc_hd__decap_12
XFILLER_0_0_120 VGND VGND VPWR VPWR sky130_fd_sc_hd__decap_8
XFILLER_0_14_73 VGND VGND VPWR VPWR sky130_fd_sc_hd__fill_2
Xfanout44 net34 VGND VGND VPWR VPWR net44 sky130_fd_sc_hd__buf_2
XFILLER_0_3_3 VPWR VGND VPWR VGND sky130_ef_sc_hd__decap_12
XTAP_TAPCELL_ROW_9_88 VGND VPWR sky130_fd_sc_hd__tapvpwrvgnd_1
XFILLER_0_18_148 VGND VGND VPWR VPWR sky130_fd_sc_hd__decap_8
X_300_ net48 dsa\[16\].last_carry_next net39 VGND VGND VPWR VPWR dsa\[16\].last_carry
+ sky130_fd_sc_hd__dfrtp_1
X_162_ _062_ net23 dsa\[29\].last_carry VGND VGND VPWR VPWR _076_ sky130_fd_sc_hd__a21o_1
X_231_ _001_ net15 dsa\[9\].last_carry VGND VGND VPWR VPWR _002_ sky130_fd_sc_hd__a21o_1
XFILLER_0_23_173 VGND VGND VPWR VPWR sky130_fd_sc_hd__fill_1
Xinput1 a[0] VGND VGND VPWR VPWR net1 sky130_fd_sc_hd__clkbuf_1
XFILLER_0_14_173 VGND VGND VPWR VPWR sky130_fd_sc_hd__fill_1
XFILLER_0_20_165 VGND VGND VPWR VPWR sky130_fd_sc_hd__decap_6
X_214_ dsa\[27\].y_out _053_ _054_ VGND VGND VPWR VPWR dsa\[28\].last_carry_next sky130_fd_sc_hd__a21bo_1
X_145_ _062_ net20 dsa\[4\].last_carry VGND VGND VPWR VPWR _063_ sky130_fd_sc_hd__a21o_1
XFILLER_0_27_18 VGND VGND VPWR VPWR sky130_fd_sc_hd__decap_6
XFILLER_0_17_84 VGND VGND VPWR VPWR sky130_fd_sc_hd__decap_8
X_128_ _030_ net18 dsa\[6\].last_carry VGND VGND VPWR VPWR _050_ sky130_fd_sc_hd__a21o_1
XFILLER_0_7_39 VPWR VGND VPWR VGND sky130_ef_sc_hd__decap_12
XFILLER_0_3_140 VGND VGND VPWR VPWR sky130_fd_sc_hd__decap_6
XFILLER_0_3_173 VGND VGND VPWR VPWR sky130_fd_sc_hd__fill_1
XFILLER_0_0_132 VGND VGND VPWR VPWR sky130_fd_sc_hd__decap_8
XPHY_EDGE_ROW_9_Right_9 VGND VGND VPWR VPWR sky130_fd_sc_hd__decap_3
XFILLER_0_28_94 VGND VGND VPWR VPWR sky130_fd_sc_hd__fill_1
XFILLER_0_0_165 VGND VGND VPWR VPWR sky130_fd_sc_hd__decap_3
XFILLER_0_8_60 VGND VGND VPWR VPWR sky130_fd_sc_hd__decap_4
XFILLER_0_4_29 VPWR VGND VPWR VGND sky130_ef_sc_hd__decap_12
XFILLER_0_14_85 VPWR VGND VPWR VGND sky130_ef_sc_hd__decap_12
XFILLER_0_14_41 VPWR VGND VPWR VGND sky130_ef_sc_hd__decap_12
XTAP_TAPCELL_ROW_0_58 VGND VPWR sky130_fd_sc_hd__tapvpwrvgnd_1
XTAP_TAPCELL_ROW_9_89 VGND VPWR sky130_fd_sc_hd__tapvpwrvgnd_1
Xfanout45 net53 VGND VGND VPWR VPWR net45 sky130_fd_sc_hd__clkbuf_2
XFILLER_0_25_51 VGND VGND VPWR VPWR sky130_fd_sc_hd__decap_4
X_161_ dsa\[30\].y_out _075_ VGND VGND VPWR VPWR dsa\[31\].y_out_next sky130_fd_sc_hd__xnor2_1
XFILLER_0_5_72 VGND VGND VPWR VPWR sky130_fd_sc_hd__fill_2
XFILLER_0_5_94 VGND VGND VPWR VPWR sky130_fd_sc_hd__decap_6
X_230_ _000_ VGND VGND VPWR VPWR _001_ sky130_fd_sc_hd__clkbuf_4
XFILLER_0_15_119 VGND VGND VPWR VPWR sky130_fd_sc_hd__fill_1
Xinput2 a[10] VGND VGND VPWR VPWR net2 sky130_fd_sc_hd__clkbuf_1
XFILLER_0_14_141 VGND VGND VPWR VPWR sky130_fd_sc_hd__decap_8
XPHY_EDGE_ROW_27_Left_56 VGND VGND VPWR VPWR sky130_fd_sc_hd__decap_3
X_213_ dsa\[5\].y_out _050_ _051_ VGND VGND VPWR VPWR dsa\[6\].last_carry_next sky130_fd_sc_hd__a21bo_1
XTAP_TAPCELL_ROW_6_79 VGND VPWR sky130_fd_sc_hd__tapvpwrvgnd_1
X_144_ _000_ VGND VGND VPWR VPWR _062_ sky130_fd_sc_hd__clkbuf_4
XFILLER_0_22_85 VGND VGND VPWR VPWR sky130_fd_sc_hd__decap_8
XFILLER_0_11_111 VGND VGND VPWR VPWR sky130_fd_sc_hd__fill_1
XTAP_TAPCELL_ROW_26_139 VGND VPWR sky130_fd_sc_hd__tapvpwrvgnd_1
XFILLER_0_2_73 VGND VGND VPWR VPWR sky130_fd_sc_hd__decap_8
X_127_ dsa\[24\].y_out _049_ VGND VGND VPWR VPWR dsa\[25\].y_out_next sky130_fd_sc_hd__xnor2_1
XFILLER_0_21_6 VPWR VGND VPWR VGND sky130_ef_sc_hd__decap_12
XFILLER_0_0_111 VGND VGND VPWR VPWR sky130_fd_sc_hd__fill_1
XFILLER_0_8_83 VGND VGND VPWR VPWR sky130_fd_sc_hd__fill_1
XPHY_EDGE_ROW_14_Left_43 VGND VGND VPWR VPWR sky130_fd_sc_hd__decap_3
XFILLER_0_14_97 VPWR VGND VPWR VGND sky130_ef_sc_hd__decap_12
XFILLER_0_14_53 VPWR VGND VPWR VGND sky130_ef_sc_hd__decap_12
Xfanout46 net53 VGND VGND VPWR VPWR net46 sky130_fd_sc_hd__dlymetal6s2s_1
XTAP_TAPCELL_ROW_0_59 VGND VPWR sky130_fd_sc_hd__tapvpwrvgnd_1
XFILLER_0_18_139 VGND VGND VPWR VPWR sky130_fd_sc_hd__fill_1
XFILLER_0_24_109 VGND VGND VPWR VPWR sky130_fd_sc_hd__decap_4
X_160_ _073_ _074_ VGND VGND VPWR VPWR _075_ sky130_fd_sc_hd__nand2_1
XPHY_EDGE_ROW_27_Right_27 VGND VGND VPWR VPWR sky130_fd_sc_hd__decap_3
Xinput3 a[11] VGND VGND VPWR VPWR net3 sky130_fd_sc_hd__clkbuf_1
XPHY_EDGE_ROW_18_Right_18 VGND VGND VPWR VPWR sky130_fd_sc_hd__decap_3
X_289_ net45 dsa\[10\].y_out_next net36 VGND VGND VPWR VPWR dsa\[10\].y_out sky130_fd_sc_hd__dfrtp_1
XFILLER_0_11_54 VGND VGND VPWR VPWR sky130_fd_sc_hd__fill_2
X_143_ dsa\[25\].y_out _061_ VGND VGND VPWR VPWR dsa\[26\].y_out_next sky130_fd_sc_hd__xnor2_1
XPHY_EDGE_ROW_2_Left_31 VGND VGND VPWR VPWR sky130_fd_sc_hd__decap_3
X_212_ dsa\[24\].y_out _047_ _048_ VGND VGND VPWR VPWR dsa\[25\].last_carry_next sky130_fd_sc_hd__a21bo_1
XFILLER_0_4_109 VPWR VGND VPWR VGND sky130_ef_sc_hd__decap_12
X_126_ _047_ _048_ VGND VGND VPWR VPWR _049_ sky130_fd_sc_hd__nand2_1
XPHY_EDGE_ROW_0_Right_0 VGND VGND VPWR VPWR sky130_fd_sc_hd__decap_3
XFILLER_0_28_52 VGND VGND VPWR VPWR sky130_fd_sc_hd__decap_4
XFILLER_0_28_41 VGND VGND VPWR VPWR sky130_fd_sc_hd__fill_1
X_109_ _034_ _035_ VGND VGND VPWR VPWR _036_ sky130_fd_sc_hd__nand2_1
XFILLER_0_14_6 VPWR VGND VPWR VGND sky130_ef_sc_hd__decap_12
XFILLER_0_8_40 VGND VGND VPWR VPWR sky130_fd_sc_hd__fill_1
XFILLER_0_8_51 VGND VGND VPWR VPWR sky130_fd_sc_hd__decap_3
XFILLER_0_14_65 VGND VGND VPWR VPWR sky130_fd_sc_hd__decap_8
Xfanout47 net53 VGND VGND VPWR VPWR net47 sky130_fd_sc_hd__clkbuf_2
Xfanout36 net44 VGND VGND VPWR VPWR net36 sky130_fd_sc_hd__clkbuf_4