*SPEF "ieee 1481-1999"
*DESIGN "spm"
*DATE "08:01:12 Sunday March 23, 2025"
*VENDOR "The OpenROAD Project"
*PROGRAM "OpenROAD"
*VERSION "b16bda7e82721d10566ff7e2b68f1ff0be9f9e38"
*DESIGN_FLOW "NAME_SCOPE LOCAL" "PIN_CAP NONE"
*DIVIDER /
*DELIMITER :
*BUS_DELIMITER []
*T_UNIT 1 NS
*C_UNIT 1 PF
*R_UNIT 1 OHM
*L_UNIT 1 HENRY

*NAME_MAP
*3 a[0]
*4 a[10]
*5 a[11]
*6 a[12]
*7 a[13]
*8 a[14]
*9 a[15]
*10 a[16]
*11 a[17]
*12 a[18]
*13 a[19]
*14 a[1]
*15 a[20]
*16 a[21]
*17 a[22]
*18 a[23]
*19 a[24]
*20 a[25]
*21 a[26]
*22 a[27]
*23 a[28]
*24 a[29]
*25 a[2]
*26 a[30]
*27 a[31]
*28 a[3]
*29 a[4]
*30 a[5]
*31 a[6]
*32 a[7]
*33 a[8]
*34 a[9]
*35 clk
*36 rst
*37 x
*38 y
*39 _000_
*40 _001_
*41 _002_
*42 _003_
*43 _004_
*44 _005_
*45 _006_
*46 _007_
*47 _008_
*48 _009_
*49 _010_
*50 _011_
*51 _012_
*52 _013_
*53 _014_
*54 _015_
*55 _016_
*56 _017_
*57 _018_
*58 _019_
*59 _020_
*60 _021_
*61 _022_
*62 _023_
*63 _024_
*64 _025_
*65 _026_
*66 _027_
*67 _028_
*68 _029_
*69 _030_
*70 _031_
*71 _032_
*72 _033_
*73 _034_
*74 _035_
*75 _036_
*76 _037_
*77 _038_
*78 _039_
*79 _040_
*80 _041_
*81 _042_
*82 _043_
*83 _044_
*84 _045_
*85 _046_
*86 _047_
*87 _048_
*88 _049_
*89 _050_
*90 _051_
*91 _052_
*92 _053_
*93 _054_
*94 _055_
*95 _056_
*96 _057_
*97 _058_
*98 _059_
*99 _060_
*100 _061_
*101 _062_
*102 _063_
*103 _064_
*104 _065_
*105 _066_
*106 _067_
*107 _068_
*108 _069_
*109 _070_
*110 _071_
*111 _072_
*112 _073_
*113 _074_
*114 _075_
*115 _076_
*116 _077_
*117 _078_
*118 _079_
*119 _080_
*120 _081_
*121 _082_
*122 _083_
*123 _084_
*124 _085_
*125 _086_
*126 _087_
*127 _088_
*128 _089_
*129 _090_
*130 _091_
*131 _092_
*132 _093_
*133 _094_
*134 _095_
*135 _096_
*136 _097_
*137 _098_
*138 _099_
*139 _100_
*140 _101_
*141 dsa\[0\]\.last_carry
*142 dsa\[0\]\.last_carry_next
*143 dsa\[0\]\.y_out
*144 dsa\[0\]\.y_out_next
*145 dsa\[10\]\.last_carry
*146 dsa\[10\]\.last_carry_next
*147 dsa\[10\]\.y_in
*148 dsa\[10\]\.y_out
*149 dsa\[10\]\.y_out_next
*150 dsa\[11\]\.last_carry
*151 dsa\[11\]\.last_carry_next
*152 dsa\[11\]\.y_out
*153 dsa\[11\]\.y_out_next
*154 dsa\[12\]\.last_carry
*155 dsa\[12\]\.last_carry_next
*156 dsa\[12\]\.y_out
*157 dsa\[12\]\.y_out_next
*158 dsa\[13\]\.last_carry
*159 dsa\[13\]\.last_carry_next
*160 dsa\[13\]\.y_out
*161 dsa\[13\]\.y_out_next
*162 dsa\[14\]\.last_carry
*163 dsa\[14\]\.last_carry_next
*164 dsa\[14\]\.y_out
*165 dsa\[14\]\.y_out_next
*166 dsa\[15\]\.last_carry
*167 dsa\[15\]\.last_carry_next
*168 dsa\[15\]\.y_out
*169 dsa\[15\]\.y_out_next
*170 dsa\[16\]\.last_carry
*171 dsa\[16\]\.last_carry_next
*172 dsa\[16\]\.y_out
*173 dsa\[16\]\.y_out_next
*174 dsa\[17\]\.last_carry
*175 dsa\[17\]\.last_carry_next
*176 dsa\[17\]\.y_out
*177 dsa\[17\]\.y_out_next
*178 dsa\[18\]\.last_carry
*179 dsa\[18\]\.last_carry_next
*180 dsa\[18\]\.y_out
*181 dsa\[18\]\.y_out_next
*182 dsa\[19\]\.last_carry
*183 dsa\[19\]\.last_carry_next
*184 dsa\[19\]\.y_out
*185 dsa\[19\]\.y_out_next
*186 dsa\[1\]\.last_carry
*187 dsa\[1\]\.last_carry_next
*188 dsa\[1\]\.y_out
*189 dsa\[1\]\.y_out_next
*190 dsa\[20\]\.last_carry
*191 dsa\[20\]\.last_carry_next
*192 dsa\[20\]\.y_out
*193 dsa\[20\]\.y_out_next
*194 dsa\[21\]\.last_carry
*195 dsa\[21\]\.last_carry_next
*196 dsa\[21\]\.y_out
*197 dsa\[21\]\.y_out_next
*198 dsa\[22\]\.last_carry
*199 dsa\[22\]\.last_carry_next
*200 dsa\[22\]\.y_out
*201 dsa\[22\]\.y_out_next
*202 dsa\[23\]\.last_carry
*203 dsa\[23\]\.last_carry_next
*204 dsa\[23\]\.y_out
*205 dsa\[23\]\.y_out_next
*206 dsa\[24\]\.last_carry
*207 dsa\[24\]\.last_carry_next
*208 dsa\[24\]\.y_out
*209 dsa\[24\]\.y_out_next
*210 dsa\[25\]\.last_carry
*211 dsa\[25\]\.last_carry_next
*212 dsa\[25\]\.y_out
*213 dsa\[25\]\.y_out_next
*214 dsa\[26\]\.last_carry
*215 dsa\[26\]\.last_carry_next
*216 dsa\[26\]\.y_out
*217 dsa\[26\]\.y_out_next
*218 dsa\[27\]\.last_carry
*219 dsa\[27\]\.last_carry_next
*220 dsa\[27\]\.y_out
*221 dsa\[27\]\.y_out_next
*222 dsa\[28\]\.last_carry
*223 dsa\[28\]\.last_carry_next
*224 dsa\[28\]\.y_out
*225 dsa\[28\]\.y_out_next
*226 dsa\[29\]\.last_carry
*227 dsa\[29\]\.last_carry_next
*228 dsa\[29\]\.y_out
*229 dsa\[29\]\.y_out_next
*230 dsa\[2\]\.last_carry
*231 dsa\[2\]\.last_carry_next
*232 dsa\[2\]\.y_out
*233 dsa\[2\]\.y_out_next
*234 dsa\[30\]\.last_carry
*235 dsa\[30\]\.last_carry_next
*236 dsa\[30\]\.y_out
*237 dsa\[30\]\.y_out_next
*238 dsa\[31\]\.last_carry
*239 dsa\[31\]\.last_carry_next
*240 dsa\[31\]\.y_out_next
*241 dsa\[3\]\.last_carry
*242 dsa\[3\]\.last_carry_next
*243 dsa\[3\]\.y_out
*244 dsa\[3\]\.y_out_next
*245 dsa\[4\]\.last_carry
*246 dsa\[4\]\.last_carry_next
*247 dsa\[4\]\.y_out
*248 dsa\[4\]\.y_out_next
*249 dsa\[5\]\.last_carry
*250 dsa\[5\]\.last_carry_next
*251 dsa\[5\]\.y_out
*252 dsa\[5\]\.y_out_next
*253 dsa\[6\]\.last_carry
*254 dsa\[6\]\.last_carry_next
*255 dsa\[6\]\.y_out
*256 dsa\[6\]\.y_out_next
*257 dsa\[7\]\.last_carry
*258 dsa\[7\]\.last_carry_next
*259 dsa\[7\]\.y_out
*260 dsa\[7\]\.y_out_next
*261 dsa\[8\]\.last_carry
*262 dsa\[8\]\.last_carry_next
*263 dsa\[8\]\.y_out
*264 dsa\[8\]\.y_out_next
*265 dsa\[9\]\.last_carry
*266 dsa\[9\]\.last_carry_next
*267 dsa\[9\]\.y_out_next
*268 net1
*269 net10
*270 net11
*271 net12
*272 net13
*273 net14
*274 net15
*275 net16
*276 net17
*277 net18
*278 net19
*279 net2
*280 net20
*281 net21
*282 net22
*283 net23
*284 net24
*285 net25
*286 net26
*287 net27
*288 net28
*289 net29
*290 net3
*291 net30
*292 net31
*293 net32
*294 net33
*295 net34
*296 net35
*297 net36
*298 net37
*299 net38
*300 net39
*301 net4
*302 net40
*303 net41
*304 net42
*305 net43
*306 net44
*307 net45
*308 net46
*309 net47
*310 net48
*311 net49
*312 net5
*313 net50
*314 net51
*315 net52
*316 net53
*317 net6
*318 net7
*319 net8
*320 net9
*321 FILLER_0_0_104
*322 FILLER_0_0_111
*323 FILLER_0_0_120
*324 FILLER_0_0_128
*325 FILLER_0_0_132
*326 FILLER_0_0_141
*327 FILLER_0_0_15
*328 FILLER_0_0_153
*329 FILLER_0_0_165
*330 FILLER_0_0_169
*331 FILLER_0_0_173
*332 FILLER_0_0_27
*333 FILLER_0_0_29
*334 FILLER_0_0_3
*335 FILLER_0_0_41
*336 FILLER_0_0_48
*337 FILLER_0_0_57
*338 FILLER_0_0_65
*339 FILLER_0_0_69
*340 FILLER_0_0_77
*341 FILLER_0_0_83
*342 FILLER_0_0_85
*343 FILLER_0_0_93
*344 FILLER_0_0_97
*345 FILLER_0_10_111
*346 FILLER_0_10_123
*347 FILLER_0_10_134
*348 FILLER_0_10_141
*349 FILLER_0_10_153
*350 FILLER_0_10_165
*351 FILLER_0_10_18
*352 FILLER_0_10_27
*353 FILLER_0_10_29
*354 FILLER_0_10_41
*355 FILLER_0_10_53
*356 FILLER_0_10_6
*357 FILLER_0_10_65
*358 FILLER_0_10_78
*359 FILLER_0_11_105
*360 FILLER_0_11_111
*361 FILLER_0_11_140
*362 FILLER_0_11_169
*363 FILLER_0_11_17
*364 FILLER_0_11_40
*365 FILLER_0_11_46
*366 FILLER_0_11_54
*367 FILLER_0_11_61
*368 FILLER_0_11_79
*369 FILLER_0_11_9
*370 FILLER_0_11_91
*371 FILLER_0_12_100
*372 FILLER_0_12_109
*373 FILLER_0_12_121
*374 FILLER_0_12_129
*375 FILLER_0_12_173
*376 FILLER_0_12_27
*377 FILLER_0_12_85
*378 FILLER_0_12_92
*379 FILLER_0_13_107
*380 FILLER_0_13_111
*381 FILLER_0_13_113
*382 FILLER_0_13_125
*383 FILLER_0_13_131
*384 FILLER_0_13_143
*385 FILLER_0_13_155
*386 FILLER_0_13_160
*387 FILLER_0_13_169
*388 FILLER_0_13_173
*389 FILLER_0_13_24
*390 FILLER_0_13_36
*391 FILLER_0_13_48
*392 FILLER_0_13_57
*393 FILLER_0_13_86
*394 FILLER_0_14_109
*395 FILLER_0_14_138
*396 FILLER_0_14_141
*397 FILLER_0_14_149
*398 FILLER_0_14_157
*399 FILLER_0_14_169
*400 FILLER_0_14_173
*401 FILLER_0_14_18
*402 FILLER_0_14_26
*403 FILLER_0_14_29
*404 FILLER_0_14_41
*405 FILLER_0_14_53
*406 FILLER_0_14_6
*407 FILLER_0_14_65
*408 FILLER_0_14_73
*409 FILLER_0_14_78
*410 FILLER_0_14_85
*411 FILLER_0_14_97
*412 FILLER_0_15_104
*413 FILLER_0_15_113
*414 FILLER_0_15_119
*415 FILLER_0_15_131
*416 FILLER_0_15_137
*417 FILLER_0_15_169
*418 FILLER_0_15_36
*419 FILLER_0_15_46
*420 FILLER_0_15_55
*421 FILLER_0_15_57
*422 FILLER_0_15_6
*423 FILLER_0_15_65
*424 FILLER_0_15_80
*425 FILLER_0_16_112
*426 FILLER_0_16_131
*427 FILLER_0_16_139
*428 FILLER_0_16_141
*429 FILLER_0_16_149
*430 FILLER_0_16_23
*431 FILLER_0_16_27
*432 FILLER_0_16_36
*433 FILLER_0_16_83
*434 FILLER_0_17_104
*435 FILLER_0_17_15
*436 FILLER_0_17_153
*437 FILLER_0_17_173
*438 FILLER_0_17_27
*439 FILLER_0_17_3
*440 FILLER_0_17_39
*441 FILLER_0_17_43
*442 FILLER_0_17_49
*443 FILLER_0_17_54
*444 FILLER_0_17_57
*445 FILLER_0_17_72
*446 FILLER_0_17_84
*447 FILLER_0_17_92
*448 FILLER_0_18_109
*449 FILLER_0_18_121
*450 FILLER_0_18_129
*451 FILLER_0_18_135
*452 FILLER_0_18_139
*453 FILLER_0_18_148
*454 FILLER_0_18_156
*455 FILLER_0_18_169
*456 FILLER_0_18_173
*457 FILLER_0_18_21
*458 FILLER_0_18_27
*459 FILLER_0_18_3
*460 FILLER_0_18_49
*461 FILLER_0_18_61
*462 FILLER_0_18_77
*463 FILLER_0_18_85
*464 FILLER_0_18_9
*465 FILLER_0_18_97
*466 FILLER_0_19_109
*467 FILLER_0_19_141
*468 FILLER_0_19_163
*469 FILLER_0_19_167
*470 FILLER_0_19_169
*471 FILLER_0_19_173
*472 FILLER_0_19_30
*473 FILLER_0_19_57
*474 FILLER_0_19_65
*475 FILLER_0_19_86
*476 FILLER_0_1_106
*477 FILLER_0_1_124
*478 FILLER_0_1_145
*479 FILLER_0_1_15
*480 FILLER_0_1_159
*481 FILLER_0_1_167
*482 FILLER_0_1_169
*483 FILLER_0_1_27
*484 FILLER_0_1_3
*485 FILLER_0_1_35
*486 FILLER_0_1_55
*487 FILLER_0_1_84
*488 FILLER_0_20_114
*489 FILLER_0_20_126
*490 FILLER_0_20_138
*491 FILLER_0_20_14
*492 FILLER_0_20_141
*493 FILLER_0_20_153
*494 FILLER_0_20_165
*495 FILLER_0_20_27
*496 FILLER_0_20_29
*497 FILLER_0_20_41
*498 FILLER_0_20_53
*499 FILLER_0_20_6
*500 FILLER_0_20_64
*501 FILLER_0_20_70
*502 FILLER_0_20_74
*503 FILLER_0_20_82
*504 FILLER_0_20_85
*505 FILLER_0_20_93
*506 FILLER_0_21_102
*507 FILLER_0_21_110
*508 FILLER_0_21_113
*509 FILLER_0_21_125
*510 FILLER_0_21_137
*511 FILLER_0_21_145
*512 FILLER_0_21_169
*513 FILLER_0_21_18
*514 FILLER_0_21_30
*515 FILLER_0_21_42
*516 FILLER_0_21_52
*517 FILLER_0_21_57
*518 FILLER_0_21_6
*519 FILLER_0_21_69
*520 FILLER_0_21_81
*521 FILLER_0_21_93
*522 FILLER_0_22_101
*523 FILLER_0_22_109
*524 FILLER_0_22_118
*525 FILLER_0_22_125
*526 FILLER_0_22_137
*527 FILLER_0_22_15
*528 FILLER_0_22_152
*529 FILLER_0_22_27
*530 FILLER_0_22_3
*531 FILLER_0_22_49
*532 FILLER_0_22_71
*533 FILLER_0_22_83
*534 FILLER_0_22_85
*535 FILLER_0_22_93
*536 FILLER_0_23_103
*537 FILLER_0_23_111
*538 FILLER_0_23_15
*539 FILLER_0_23_160
*540 FILLER_0_23_169
*541 FILLER_0_23_173
*542 FILLER_0_23_27
*543 FILLER_0_23_3
*544 FILLER_0_23_39
*545 FILLER_0_23_51
*546 FILLER_0_23_55
*547 FILLER_0_23_57
*548 FILLER_0_23_91
*549 FILLER_0_24_109
*550 FILLER_0_24_11
*551 FILLER_0_24_113
*552 FILLER_0_24_117
*553 FILLER_0_24_122
*554 FILLER_0_24_133
*555 FILLER_0_24_139
*556 FILLER_0_24_151
*557 FILLER_0_24_163
*558 FILLER_0_24_169
*559 FILLER_0_24_26
*560 FILLER_0_24_3
*561 FILLER_0_24_56
*562 FILLER_0_24_68
*563 FILLER_0_24_82
*564 FILLER_0_24_85
*565 FILLER_0_25_105
*566 FILLER_0_25_111
*567 FILLER_0_25_113
*568 FILLER_0_25_125
*569 FILLER_0_25_137
*570 FILLER_0_25_149
*571 FILLER_0_25_161
*572 FILLER_0_25_167
*573 FILLER_0_25_169
*574 FILLER_0_25_173
*575 FILLER_0_25_23
*576 FILLER_0_25_27
*577 FILLER_0_25_39
*578 FILLER_0_25_51
*579 FILLER_0_25_55
*580 FILLER_0_25_57
*581 FILLER_0_25_69
*582 FILLER_0_25_81
*583 FILLER_0_25_93
*584 FILLER_0_26_105
*585 FILLER_0_26_114
*586 FILLER_0_26_126
*587 FILLER_0_26_138
*588 FILLER_0_26_141
*589 FILLER_0_26_153
*590 FILLER_0_26_165
*591 FILLER_0_26_173
*592 FILLER_0_26_21
*593 FILLER_0_26_27
*594 FILLER_0_26_29
*595 FILLER_0_26_3
*596 FILLER_0_26_41
*597 FILLER_0_26_49
*598 FILLER_0_26_75
*599 FILLER_0_26_83
*600 FILLER_0_26_89
*601 FILLER_0_26_9
*602 FILLER_0_26_97
*603 FILLER_0_27_133
*604 FILLER_0_27_145
*605 FILLER_0_27_157
*606 FILLER_0_27_165
*607 FILLER_0_27_169
*608 FILLER_0_27_173
*609 FILLER_0_27_18
*610 FILLER_0_27_24
*611 FILLER_0_27_6
*612 FILLER_0_28_102
*613 FILLER_0_28_111
*614 FILLER_0_28_113
*615 FILLER_0_28_121
*616 FILLER_0_28_125
*617 FILLER_0_28_137
*618 FILLER_0_28_141
*619 FILLER_0_28_15
*620 FILLER_0_28_153
*621 FILLER_0_28_165
*622 FILLER_0_28_169
*623 FILLER_0_28_173
*624 FILLER_0_28_27
*625 FILLER_0_28_29
*626 FILLER_0_28_3
*627 FILLER_0_28_41
*628 FILLER_0_28_52
*629 FILLER_0_28_57
*630 FILLER_0_28_69
*631 FILLER_0_28_77
*632 FILLER_0_28_94
*633 FILLER_0_2_103
*634 FILLER_0_2_136
*635 FILLER_0_2_15
*636 FILLER_0_2_27
*637 FILLER_0_2_3
*638 FILLER_0_2_73
*639 FILLER_0_3_101
*640 FILLER_0_3_109
*641 FILLER_0_3_113
*642 FILLER_0_3_121
*643 FILLER_0_3_128
*644 FILLER_0_3_140
*645 FILLER_0_3_15
*646 FILLER_0_3_160
*647 FILLER_0_3_169
*648 FILLER_0_3_173
*649 FILLER_0_3_27
*650 FILLER_0_3_3
*651 FILLER_0_3_39
*652 FILLER_0_3_47
*653 FILLER_0_3_55
*654 FILLER_0_3_57
*655 FILLER_0_3_69
*656 FILLER_0_4_109
*657 FILLER_0_4_121
*658 FILLER_0_4_133
*659 FILLER_0_4_138
*660 FILLER_0_4_148
*661 FILLER_0_4_15
*662 FILLER_0_4_27
*663 FILLER_0_4_29
*664 FILLER_0_4_3
*665 FILLER_0_4_41
*666 FILLER_0_4_72
*667 FILLER_0_4_85
*668 FILLER_0_4_97
*669 FILLER_0_5_107
*670 FILLER_0_5_111
*671 FILLER_0_5_141
*672 FILLER_0_5_163
*673 FILLER_0_5_167
*674 FILLER_0_5_169
*675 FILLER_0_5_173
*676 FILLER_0_5_28
*677 FILLER_0_5_3
*678 FILLER_0_5_54
*679 FILLER_0_5_72
*680 FILLER_0_5_94
*681 FILLER_0_6_106
*682 FILLER_0_6_118
*683 FILLER_0_6_147
*684 FILLER_0_6_155
*685 FILLER_0_6_163
*686 FILLER_0_6_26
*687 FILLER_0_6_36
*688 FILLER_0_6_48
*689 FILLER_0_6_6
*690 FILLER_0_6_60
*691 FILLER_0_6_71
*692 FILLER_0_6_83
*693 FILLER_0_6_89
*694 FILLER_0_7_119
*695 FILLER_0_7_131
*696 FILLER_0_7_141
*697 FILLER_0_7_15
*698 FILLER_0_7_153
*699 FILLER_0_7_162
*700 FILLER_0_7_169
*701 FILLER_0_7_173
*702 FILLER_0_7_27
*703 FILLER_0_7_3
*704 FILLER_0_7_39
*705 FILLER_0_7_51
*706 FILLER_0_7_55
*707 FILLER_0_7_57
*708 FILLER_0_7_69
*709 FILLER_0_7_87
*710 FILLER_0_8_109
*711 FILLER_0_8_121
*712 FILLER_0_8_139
*713 FILLER_0_8_141
*714 FILLER_0_8_171
*715 FILLER_0_8_26
*716 FILLER_0_8_32
*717 FILLER_0_8_40
*718 FILLER_0_8_51
*719 FILLER_0_8_60
*720 FILLER_0_8_64
*721 FILLER_0_8_79
*722 FILLER_0_8_83
*723 FILLER_0_8_85
*724 FILLER_0_8_97
*725 FILLER_0_9_11
*726 FILLER_0_9_111
*727 FILLER_0_9_145
*728 FILLER_0_9_166
*729 FILLER_0_9_169
*730 FILLER_0_9_3
*731 FILLER_0_9_84
*732 FILLER_0_9_92
*733 FILLER_0_9_99
*734 PHY_EDGE_ROW_0_Left_29
*735 PHY_EDGE_ROW_0_Right_0
*736 PHY_EDGE_ROW_10_Left_39
*737 PHY_EDGE_ROW_10_Right_10
*738 PHY_EDGE_ROW_11_Left_40
*739 PHY_EDGE_ROW_11_Right_11
*740 PHY_EDGE_ROW_12_Left_41
*741 PHY_EDGE_ROW_12_Right_12
*742 PHY_EDGE_ROW_13_Left_42
*743 PHY_EDGE_ROW_13_Right_13
*744 PHY_EDGE_ROW_14_Left_43
*745 PHY_EDGE_ROW_14_Right_14
*746 PHY_EDGE_ROW_15_Left_44
*747 PHY_EDGE_ROW_15_Right_15
*748 PHY_EDGE_ROW_16_Left_45
*749 PHY_EDGE_ROW_16_Right_16
*750 PHY_EDGE_ROW_17_Left_46
*751 PHY_EDGE_ROW_17_Right_17
*752 PHY_EDGE_ROW_18_Left_47
*753 PHY_EDGE_ROW_18_Right_18
*754 PHY_EDGE_ROW_19_Left_48
*755 PHY_EDGE_ROW_19_Right_19
*756 PHY_EDGE_ROW_1_Left_30
*757 PHY_EDGE_ROW_1_Right_1
*758 PHY_EDGE_ROW_20_Left_49
*759 PHY_EDGE_ROW_20_Right_20
*760 PHY_EDGE_ROW_21_Left_50
*761 PHY_EDGE_ROW_21_Right_21
*762 PHY_EDGE_ROW_22_Left_51
*763 PHY_EDGE_ROW_22_Right_22
*764 PHY_EDGE_ROW_23_Left_52
*765 PHY_EDGE_ROW_23_Right_23
*766 PHY_EDGE_ROW_24_Left_53
*767 PHY_EDGE_ROW_24_Right_24
*768 PHY_EDGE_ROW_25_Left_54
*769 PHY_EDGE_ROW_25_Right_25
*770 PHY_EDGE_ROW_26_Left_55
*771 PHY_EDGE_ROW_26_Right_26
*772 PHY_EDGE_ROW_27_Left_56
*773 PHY_EDGE_ROW_27_Right_27
*774 PHY_EDGE_ROW_28_Left_57
*775 PHY_EDGE_ROW_28_Right_28
*776 PHY_EDGE_ROW_2_Left_31
*777 PHY_EDGE_ROW_2_Right_2
*778 PHY_EDGE_ROW_3_Left_32
*779 PHY_EDGE_ROW_3_Right_3
*780 PHY_EDGE_ROW_4_Left_33
*781 PHY_EDGE_ROW_4_Right_4
*782 PHY_EDGE_ROW_5_Left_34
*783 PHY_EDGE_ROW_5_Right_5
*784 PHY_EDGE_ROW_6_Left_35
*785 PHY_EDGE_ROW_6_Right_6
*786 PHY_EDGE_ROW_7_Left_36
*787 PHY_EDGE_ROW_7_Right_7
*788 PHY_EDGE_ROW_8_Left_37
*789 PHY_EDGE_ROW_8_Right_8
*790 PHY_EDGE_ROW_9_Left_38
*791 PHY_EDGE_ROW_9_Right_9
*792 TAP_TAPCELL_ROW_0_58
*793 TAP_TAPCELL_ROW_0_59
*794 TAP_TAPCELL_ROW_0_60
*795 TAP_TAPCELL_ROW_0_61
*796 TAP_TAPCELL_ROW_0_62
*797 TAP_TAPCELL_ROW_0_63
*798 TAP_TAPCELL_ROW_10_91
*799 TAP_TAPCELL_ROW_10_92
*800 TAP_TAPCELL_ROW_10_93
*801 TAP_TAPCELL_ROW_11_94
*802 TAP_TAPCELL_ROW_11_95
*803 TAP_TAPCELL_ROW_11_96
*804 TAP_TAPCELL_ROW_12_97
*805 TAP_TAPCELL_ROW_12_98
*806 TAP_TAPCELL_ROW_12_99
*807 TAP_TAPCELL_ROW_13_100
*808 TAP_TAPCELL_ROW_13_101
*809 TAP_TAPCELL_ROW_13_102
*810 TAP_TAPCELL_ROW_14_103
*811 TAP_TAPCELL_ROW_14_104
*812 TAP_TAPCELL_ROW_14_105
*813 TAP_TAPCELL_ROW_15_106
*814 TAP_TAPCELL_ROW_15_107
*815 TAP_TAPCELL_ROW_15_108
*816 TAP_TAPCELL_ROW_16_109
*817 TAP_TAPCELL_ROW_16_110
*818 TAP_TAPCELL_ROW_16_111
*819 TAP_TAPCELL_ROW_17_112
*820 TAP_TAPCELL_ROW_17_113
*821 TAP_TAPCELL_ROW_17_114
*822 TAP_TAPCELL_ROW_18_115
*823 TAP_TAPCELL_ROW_18_116
*824 TAP_TAPCELL_ROW_18_117
*825 TAP_TAPCELL_ROW_19_118
*826 TAP_TAPCELL_ROW_19_119
*827 TAP_TAPCELL_ROW_19_120
*828 TAP_TAPCELL_ROW_1_64
*829 TAP_TAPCELL_ROW_1_65
*830 TAP_TAPCELL_ROW_1_66
*831 TAP_TAPCELL_ROW_20_121
*832 TAP_TAPCELL_ROW_20_122
*833 TAP_TAPCELL_ROW_20_123
*834 TAP_TAPCELL_ROW_21_124
*835 TAP_TAPCELL_ROW_21_125
*836 TAP_TAPCELL_ROW_21_126
*837 TAP_TAPCELL_ROW_22_127
*838 TAP_TAPCELL_ROW_22_128
*839 TAP_TAPCELL_ROW_22_129
*840 TAP_TAPCELL_ROW_23_130
*841 TAP_TAPCELL_ROW_23_131
*842 TAP_TAPCELL_ROW_23_132
*843 TAP_TAPCELL_ROW_24_133
*844 TAP_TAPCELL_ROW_24_134
*845 TAP_TAPCELL_ROW_24_135
*846 TAP_TAPCELL_ROW_25_136
*847 TAP_TAPCELL_ROW_25_137
*848 TAP_TAPCELL_ROW_25_138
*849 TAP_TAPCELL_ROW_26_139
*850 TAP_TAPCELL_ROW_26_140
*851 TAP_TAPCELL_ROW_26_141
*852 TAP_TAPCELL_ROW_27_142
*853 TAP_TAPCELL_ROW_27_143
*854 TAP_TAPCELL_ROW_27_144
*855 TAP_TAPCELL_ROW_28_145
*856 TAP_TAPCELL_ROW_28_146
*857 TAP_TAPCELL_ROW_28_147
*858 TAP_TAPCELL_ROW_28_148
*859 TAP_TAPCELL_ROW_28_149
*860 TAP_TAPCELL_ROW_28_150
*861 TAP_TAPCELL_ROW_2_67
*862 TAP_TAPCELL_ROW_2_68
*863 TAP_TAPCELL_ROW_2_69
*864 TAP_TAPCELL_ROW_3_70
*865 TAP_TAPCELL_ROW_3_71
*866 TAP_TAPCELL_ROW_3_72
*867 TAP_TAPCELL_ROW_4_73
*868 TAP_TAPCELL_ROW_4_74
*869 TAP_TAPCELL_ROW_4_75
*870 TAP_TAPCELL_ROW_5_76
*871 TAP_TAPCELL_ROW_5_77
*872 TAP_TAPCELL_ROW_5_78
*873 TAP_TAPCELL_ROW_6_79
*874 TAP_TAPCELL_ROW_6_80
*875 TAP_TAPCELL_ROW_6_81
*876 TAP_TAPCELL_ROW_7_82
*877 TAP_TAPCELL_ROW_7_83
*878 TAP_TAPCELL_ROW_7_84
*879 TAP_TAPCELL_ROW_8_85
*880 TAP_TAPCELL_ROW_8_86
*881 TAP_TAPCELL_ROW_8_87
*882 TAP_TAPCELL_ROW_9_88
*883 TAP_TAPCELL_ROW_9_89
*884 TAP_TAPCELL_ROW_9_90
*885 _102_
*886 _103_
*887 _104_
*888 _105_
*889 _106_
*890 _107_
*891 _108_
*892 _109_
*893 _110_
*894 _111_
*895 _112_
*896 _113_
*897 _114_
*898 _115_
*899 _116_
*900 _117_
*901 _118_
*902 _119_
*903 _120_
*904 _121_
*905 _122_
*906 _123_
*907 _124_
*908 _125_
*909 _126_
*910 _127_
*911 _128_
*912 _129_
*913 _130_
*914 _131_
*915 _132_
*916 _133_
*917 _134_
*918 _135_
*919 _136_
*920 _137_
*921 _138_
*922 _139_
*923 _140_
*924 _141_
*925 _142_
*926 _143_
*927 _144_
*928 _145_
*929 _146_
*930 _147_
*931 _148_
*932 _149_
*933 _150_
*934 _151_
*935 _152_
*936 _153_
*937 _154_
*938 _155_
*939 _156_
*940 _157_
*941 _158_
*942 _159_
*943 _160_
*944 _161_
*945 _162_
*946 _163_
*947 _164_
*948 _165_
*949 _166_
*950 _167_
*951 _168_
*952 _169_
*953 _170_
*954 _171_
*955 _172_
*956 _173_
*957 _174_
*958 _175_
*959 _176_
*960 _177_
*961 _178_
*962 _179_
*963 _180_
*964 _181_
*965 _182_
*966 _183_
*967 _184_
*968 _185_
*969 _186_
*970 _187_
*971 _188_
*972 _189_
*973 _190_
*974 _191_
*975 _192_
*976 _193_
*977 _194_
*978 _195_
*979 _196_
*980 _197_
*981 _198_
*982 _199_
*983 _200_
*984 _201_
*985 _202_
*986 _203_
*987 _204_
*988 _205_
*989 _206_
*990 _207_
*991 _208_
*992 _209_
*993 _210_
*994 _211_
*995 _212_
*996 _213_
*997 _214_
*998 _215_
*999 _216_
*1000 _217_
*1001 _218_
*1002 _219_
*1003 _220_
*1004 _221_
*1005 _222_
*1006 _223_
*1007 _224_
*1008 _225_
*1009 _226_
*1010 _227_
*1011 _228_
*1012 _229_
*1013 _230_
*1014 _231_
*1015 _232_
*1016 _233_
*1017 _234_
*1018 _235_
*1019 _236_
*1020 _237_
*1021 _238_
*1022 _239_
*1023 _240_
*1024 _241_
*1025 _242_
*1026 _243_
*1027 _244_
*1028 _245_
*1029 _246_
*1030 _247_
*1031 _248_
*1032 _249_
*1033 _250_
*1034 _251_
*1035 _252_
*1036 _253_
*1037 _254_
*1038 _255_
*1039 _256_
*1040 _257_
*1041 _258_
*1042 _259_
*1043 _260_
*1044 _261_
*1045 _262_
*1046 _263_
*1047 _264_
*1048 _265_
*1049 _266_
*1050 _267_
*1051 _268_
*1052 _269_
*1053 _270_
*1054 _271_
*1055 _272_
*1056 _273_
*1057 _274_
*1058 _275_
*1059 _276_
*1060 _277_
*1061 _278_
*1062 _279_
*1063 _280_
*1064 _281_
*1065 _282_
*1066 _283_
*1067 _284_
*1068 _285_
*1069 _286_
*1070 _287_
*1071 _288_
*1072 _289_
*1073 _290_
*1074 _291_
*1075 _292_
*1076 _293_
*1077 _294_
*1078 _295_
*1079 _296_
*1080 _297_
*1081 _298_
*1082 _299_
*1083 _300_
*1084 _301_
*1085 _302_
*1086 _303_
*1087 _304_
*1088 _305_
*1089 _306_
*1090 _307_
*1091 _308_
*1092 _309_
*1093 _310_
*1094 _311_
*1095 _312_
*1096 _313_
*1097 _314_
*1098 _315_
*1099 _316_
*1100 _317_
*1101 _318_
*1102 _319_
*1103 _320_
*1104 _321_
*1105 _322_
*1106 _323_
*1107 _324_
*1108 _325_
*1109 _326_
*1110 _327_
*1111 _328_
*1112 _329_
*1113 _330_
*1114 _331_
*1115 fanout36
*1116 fanout37
*1117 fanout38
*1118 fanout39
*1119 fanout40
*1120 fanout41
*1121 fanout42
*1122 fanout43
*1123 fanout44
*1124 fanout45
*1125 fanout46
*1126 fanout47
*1127 fanout48
*1128 fanout49
*1129 fanout50
*1130 fanout51
*1131 fanout52
*1132 fanout53
*1133 input1
*1134 input10
*1135 input11
*1136 input12
*1137 input13
*1138 input14
*1139 input15
*1140 input16
*1141 input17
*1142 input18
*1143 input19
*1144 input2
*1145 input20
*1146 input21
*1147 input22
*1148 input23
*1149 input24
*1150 input25
*1151 input26
*1152 input27
*1153 input28
*1154 input29
*1155 input3
*1156 input30
*1157 input31
*1158 input32
*1159 input33
*1160 input34
*1161 input4
*1162 input5
*1163 input6
*1164 input7
*1165 input8
*1166 input9
*1167 output35

*PORTS
a[0] I
a[10] I
a[11] I
a[12] I
a[13] I
a[14] I
a[15] I
a[16] I
a[17] I
a[18] I
a[19] I
a[1] I
a[20] I
a[21] I
a[22] I
a[23] I
a[24] I
a[25] I
a[26] I
a[27] I
a[28] I
a[29] I
a[2] I
a[30] I
a[31] I
a[3] I
a[4] I
a[5] I
a[6] I
a[7] I
a[8] I
a[9] I
clk I
rst I
x I
y O

*D_NET *3 0.000590345
*CONN
*P a[0] I
*I *1133:A I *D sky130_fd_sc_hd__clkbuf_1
*CAP
1 a[0] 0.000258448
2 *1133:A 0.000258448
3 *1133:A y 7.3448e-05
4 *1133:A *1148:A 0
5 *1133:A *268:14 0
*RES
1 a[0] *1133:A 19.8722 
*END

*D_NET *4 0.00165425
*CONN
*P a[10] I
*I *1144:A I *D sky130_fd_sc_hd__clkbuf_1
*CAP
1 a[10] 0.000598976
2 *1144:A 0.000598976
3 *1144:A *984:B1_N 8.07313e-05
4 *1144:A *1029:A 5.52238e-05
5 *1144:A *1029:B 3.99614e-06
6 *1144:A *52:10 5.24324e-05
7 *1144:A *279:10 0.000263911
*RES
1 a[10] *1144:A 27.1571 
*END

*D_NET *5 0.00090312
*CONN
*P a[11] I
*I *1155:A I *D sky130_fd_sc_hd__clkbuf_1
*CAP
1 a[11] 0.00039051
2 *1155:A 0.00039051
3 *1155:A *1091:CLK 0
4 *1155:A *1159:A 0
5 *1155:A *309:8 9.76689e-05
6 *1155:A *309:18 0
7 *1155:A *309:62 2.44318e-05
*RES
1 a[11] *1155:A 22.5667 
*END

*D_NET *6 0.00115158
*CONN
*P a[12] I
*I *1161:A I *D sky130_fd_sc_hd__buf_1
*CAP
1 a[12] 0.000538195
2 *1161:A 0.000538195
3 *1161:A *1131:A 5.68713e-05
4 *1161:A *314:62 1.83136e-05
*RES
1 a[12] *1161:A 24.5679 
*END

*D_NET *7 0.00170885
*CONN
*P a[13] I
*I *1162:A I *D sky130_fd_sc_hd__clkbuf_1
*CAP
1 a[13] 0.000649585
2 *1162:A 0.000649585
3 *1162:A *1131:A 0.000186669
4 *1162:A *1158:A 0
5 *1162:A *312:10 0.000126639
6 *1162:A *314:10 6.15071e-05
7 *1162:A *314:62 3.48705e-05
*RES
1 a[13] *1162:A 27.6929 
*END

*D_NET *8 0.00120253
*CONN
*P a[14] I
*I *1163:A I *D sky130_fd_sc_hd__clkbuf_1
*CAP
1 a[14] 0.000524988
2 *1163:A 0.000524988
3 *1163:A *1131:A 5.52238e-05
4 *1163:A *314:62 9.73258e-05
*RES
1 a[14] *1163:A 24.5679 
*END

*D_NET *9 0.00110562
*CONN
*P a[15] I
*I *1164:A I *D sky130_fd_sc_hd__clkbuf_1
*CAP
1 a[15] 0.000552809
2 *1164:A 0.000552809
3 *1164:A *1158:A 0
4 *1164:A *312:10 0
*RES
1 a[15] *1164:A 24.5679 
*END

*D_NET *10 0.000640292
*CONN
*P a[16] I
*I *1165:A I *D sky130_fd_sc_hd__buf_1
*CAP
1 a[16] 0.000304177
2 *1165:A 0.000304177
3 *1165:A *1166:A 3.19385e-05
4 *1165:A *309:18 0
*RES
1 a[16] *1165:A 21.0874 
*END

*D_NET *11 0.00062475
*CONN
*P a[17] I
*I *1166:A I *D sky130_fd_sc_hd__clkbuf_1
*CAP
1 a[17] 0.000249005
2 *1166:A 0.000249005
3 *1166:A *309:18 9.48025e-05
4 *1165:A *1166:A 3.19385e-05
*RES
1 a[17] *1166:A 19.0336 
*END

*D_NET *12 0.000634641
*CONN
*P a[18] I
*I *1134:A I *D sky130_fd_sc_hd__buf_1
*CAP
1 a[18] 0.00031732
2 *1134:A 0.00031732
3 *1134:A *1135:A 0
4 *1134:A *316:12 0
*RES
1 a[18] *1134:A 21.0874 
*END

*D_NET *13 0.000685464
*CONN
*P a[19] I
*I *1135:A I *D sky130_fd_sc_hd__clkbuf_1
*CAP
1 a[19] 0.000287718
2 *1135:A 0.000287718
3 *1135:A *1137:A 0
4 *1135:A *1157:A 2.25951e-05
5 *1135:A *316:12 7.72412e-05
6 *1135:A *316:26 1.01912e-05
7 *1134:A *1135:A 0
*RES
1 a[19] *1135:A 19.9443 
*END

*D_NET *14 0.000459959
*CONN
*P a[1] I
*I *1136:A I *D sky130_fd_sc_hd__clkbuf_1
*CAP
1 a[1] 0.000152569
2 *1136:A 0.000152569
3 *1136:A *1122:A 0
4 *1136:A *1151:A 7.60209e-05
5 *1136:A *1152:A 6.6605e-05
6 *1136:A *271:8 1.21955e-05
*RES
1 a[1] *1136:A 18.6579 
*END

*D_NET *15 0.000833125
*CONN
*P a[20] I
*I *1137:A I *D sky130_fd_sc_hd__buf_1
*CAP
1 a[20] 0.000340502
2 *1137:A 0.000340502
3 *1137:A *1012:A 0
4 *1137:A *1150:A 2.87684e-05
5 *1137:A *1157:A 3.19385e-05
6 *1137:A *307:14 9.14154e-05
7 *1135:A *1137:A 0
*RES
1 a[20] *1137:A 19.2498 
*END

*D_NET *16 0.00094414
*CONN
*P a[21] I
*I *1138:A I *D sky130_fd_sc_hd__buf_1
*CAP
1 a[21] 0.000462425
2 *1138:A 0.000462425
3 *1138:A *273:10 1.92905e-05
*RES
1 a[21] *1138:A 22.6571 
*END

*D_NET *17 0.00084331
*CONN
*P a[22] I
*I *1139:A I *D sky130_fd_sc_hd__clkbuf_1
*CAP
1 a[22] 0.000421655
2 *1139:A 0.000421655
*RES
1 a[22] *1139:A 21.8357 
*END

*D_NET *18 0.00084331
*CONN
*P a[23] I
*I *1140:A I *D sky130_fd_sc_hd__clkbuf_1
*CAP
1 a[23] 0.000421655
2 *1140:A 0.000421655
3 *1140:A *1156:A 0
*RES
1 a[23] *1140:A 21.8357 
*END

*D_NET *19 0.00084331
*CONN
*P a[24] I
*I *1141:A I *D sky130_fd_sc_hd__clkbuf_1
*CAP
1 a[24] 0.000421655
2 *1141:A 0.000421655
*RES
1 a[24] *1141:A 21.8357 
*END

*D_NET *20 0.000402184
*CONN
*P a[25] I
*I *1142:A I *D sky130_fd_sc_hd__clkbuf_1
*CAP
1 a[25] 0.00016779
2 *1142:A 0.00016779
3 *1142:A *1160:A 6.6605e-05
*RES
1 a[25] *1142:A 18.0508 
*END

*D_NET *21 0.000714714
*CONN
*P a[26] I
*I *1143:A I *D sky130_fd_sc_hd__clkbuf_1
*CAP
1 a[26] 0.000235373
2 *1143:A 0.000235373
3 *1143:A *1145:A 0
4 *1143:A *1154:A 7.3448e-05
5 *1143:A *77:108 0.000170521
*RES
1 a[26] *1143:A 20.1758 
*END

*D_NET *22 0.000472464
*CONN
*P a[27] I
*I *1145:A I *D sky130_fd_sc_hd__clkbuf_1
*CAP
1 a[27] 0.000216031
2 *1145:A 0.000216031
3 *1145:A *77:93 4.04012e-05
4 *1143:A *1145:A 0
*RES
1 a[27] *1145:A 18.6579 
*END

*D_NET *23 0.000843392
*CONN
*P a[28] I
*I *1146:A I *D sky130_fd_sc_hd__clkbuf_1
*CAP
1 a[28] 0.000421696
2 *1146:A 0.000421696
3 *1146:A *1156:A 0
*RES
1 a[28] *1146:A 21.8357 
*END

*D_NET *24 0.000850556
*CONN
*P a[29] I
*I *1147:A I *D sky130_fd_sc_hd__clkbuf_1
*CAP
1 a[29] 0.000416121
2 *1147:A 0.000416121
3 *1147:A *282:14 1.83136e-05
*RES
1 a[29] *1147:A 21.8357 
*END

*D_NET *25 0.000530065
*CONN
*P a[2] I
*I *1148:A I *D sky130_fd_sc_hd__clkbuf_1
*CAP
1 a[2] 0.000265033
2 *1148:A 0.000265033
3 *1148:A *1112:D 0
4 *1148:A *1152:A 0
5 *1133:A *1148:A 0
*RES
1 a[2] *1148:A 19.2651 
*END

*D_NET *26 0.000517453
*CONN
*P a[30] I
*I *1149:A I *D sky130_fd_sc_hd__clkbuf_1
*CAP
1 a[30] 0.000240248
2 *1149:A 0.000240248
3 *1149:A *1012:A 0
4 *1149:A *307:18 3.69573e-05
*RES
1 a[30] *1149:A 18.73 
*END

*D_NET *27 0.000631115
*CONN
*P a[31] I
*I *1150:A I *D sky130_fd_sc_hd__clkbuf_1
*CAP
1 a[31] 0.000289876
2 *1150:A 0.000289876
3 *1150:A *1012:A 2.25951e-05
4 *1150:A *1157:A 0
5 *1150:A *307:14 0
6 *1137:A *1150:A 2.87684e-05
*RES
1 a[31] *1150:A 21.0874 
*END

*D_NET *28 0.000650596
*CONN
*P a[3] I
*I *1151:A I *D sky130_fd_sc_hd__buf_1
*CAP
1 a[3] 0.000221786
2 *1151:A 0.000221786
3 *1151:A *899:A2 1.08359e-05
4 *1151:A *900:A 0.000115707
5 *1151:A *1153:A 0
6 *1151:A *271:8 4.46186e-06
7 *1136:A *1151:A 7.60209e-05
*RES
1 a[3] *1151:A 19.5686 
*END

*D_NET *29 0.000871876
*CONN
*P a[4] I
*I *1152:A I *D sky130_fd_sc_hd__buf_1
*CAP
1 a[4] 0.000369642
2 *1152:A 0.000369642
3 *1152:A *901:B 1.25924e-05
4 *1152:A *1122:A 4.52619e-05
5 *1152:A *81:8 8.13261e-06
6 *1136:A *1152:A 6.6605e-05
7 *1148:A *1152:A 0
*RES
1 a[4] *1152:A 18.7868 
*END

*D_NET *30 0.000690364
*CONN
*P a[5] I
*I *1153:A I *D sky130_fd_sc_hd__clkbuf_1
*CAP
1 a[5] 0.000262837
2 *1153:A 0.000262837
3 *1153:A *1154:A 0
4 *1153:A *77:108 0.00016469
5 *1151:A *1153:A 0
*RES
1 a[5] *1153:A 19.8722 
*END

*D_NET *31 0.000597347
*CONN
*P a[6] I
*I *1154:A I *D sky130_fd_sc_hd__clkbuf_1
*CAP
1 a[6] 0.000204105
2 *1154:A 0.000204105
3 *1154:A *77:108 0.000115688
4 *1143:A *1154:A 7.3448e-05
5 *1153:A *1154:A 0
*RES
1 a[6] *1154:A 19.2651 
*END

*D_NET *32 0.000846379
*CONN
*P a[7] I
*I *1156:A I *D sky130_fd_sc_hd__buf_1
*CAP
1 a[7] 0.000413544
2 *1156:A 0.000413544
3 *1156:A *291:16 1.92905e-05
4 *1140:A *1156:A 0
5 *1146:A *1156:A 0
*RES
1 a[7] *1156:A 21.8357 
*END

*D_NET *33 0.000690645
*CONN
*P a[8] I
*I *1157:A I *D sky130_fd_sc_hd__buf_1
*CAP
1 a[8] 0.000318056
2 *1157:A 0.000318056
3 *1157:A *307:14 0
4 *1135:A *1157:A 2.25951e-05
5 *1137:A *1157:A 3.19385e-05
6 *1150:A *1157:A 0
*RES
1 a[8] *1157:A 21.6946 
*END

*D_NET *34 0.00130069
*CONN
*P a[9] I
*I *1158:A I *D sky130_fd_sc_hd__buf_1
*CAP
1 a[9] 0.000583415
2 *1158:A 0.000583415
3 *1158:A *1035:A1 4.884e-05
4 *1158:A *312:10 8.50152e-05
5 *1158:A *314:10 0
6 *1162:A *1158:A 0
7 *1164:A *1158:A 0
*RES
1 a[9] *1158:A 25.5143 
*END

*D_NET *35 0.000575501
*CONN
*P clk I
*I *1159:A I *D sky130_fd_sc_hd__clkbuf_1
*CAP
1 clk 0.000287751
2 *1159:A 0.000287751
3 *1155:A *1159:A 0
*RES
1 clk *1159:A 20.4803 
*END

*D_NET *36 0.000499174
*CONN
*P rst I
*I *1160:A I *D sky130_fd_sc_hd__clkbuf_1
*CAP
1 rst 0.000216285
2 *1160:A 0.000216285
3 *1142:A *1160:A 6.6605e-05
*RES
1 rst *1160:A 18.9615 
*END

*D_NET *37 0.00359417
*CONN
*P x I
*I *1012:A I *D sky130_fd_sc_hd__buf_2
*CAP
1 x 0.00164663
2 *1012:A 0.00164663
3 *1012:A *972:B 4.51632e-05
4 *1012:A *1013:A 0.000229456
5 *1012:A *1052:D 3.69047e-06
6 *1137:A *1012:A 0
7 *1149:A *1012:A 0